!RHF def2-SVP TightSCF PAL16 
*xyz 0 1
N -2.1048420930998057 -1.3122473991045311 1.2217212190402955
C -2.3847645714779975 -0.4450714083746091 0.28671359557363846
N -1.3900935921449575 0.13561567453120515 -0.4933818522251262
O -0.21983821165649026 -0.6453999960952852 -0.593211248080012
C 0.6036123415358013 -0.3963391618614332 0.5580440010844274
C 1.9338391780320836 0.02331911946896059 0.060403270681207225
N 3.0768313295169265 -0.6278154476587985 0.02572286996674037
C 3.918293604283408 0.30184760060533455 -0.5241671442674254
C 5.424585519970885 0.024503341645289143 -0.7853916231149888
C 6.127768893347877 -1.0778840906189842 -0.034180572774921814
C 6.4224326306764175 0.3570184324579223 0.29574126422879604
N 3.3521531240016778 1.47806492838994 -0.8185231152570244
O 2.023579706504139 1.2962147118059892 -0.4295840047496564
C -3.8356818885671813 -0.05907170339162644 0.08345291948356695
C -4.222667785614944 0.9846811759239608 -0.7493440022618214
C -5.583224941398195 1.262244877799064 -0.8619149939272449
C -6.500417895848933 0.5020575150934813 -0.14202014725351933
C -6.021915559037127 -0.5113407338198918 0.6730803226378848
N -4.712321573425842 -0.8094450880735151 0.8068975136399202
H -3.0065594028309373 -1.5996664069108568 1.6427833555905973
H -1.6866370857748616 0.43514791442450046 -1.4177451057531714
H 0.1931657057099761 0.37749583143700866 1.218684829803
H 0.693153232270712 -1.3291093955168956 1.123079658706116
H 5.728421992317859 0.19611316689270752 -1.8116274178139158
H 5.557614404274737 -1.6599117553899934 0.6822099009960928
H 6.883675078508559 -1.6474199141390378 -0.56261681606482
H 6.053469417142831 0.7454415476816797 1.2386624932886223
H 7.377509910970196 0.7673355963070317 -0.009122442781014234
H -3.5079886699535727 1.5916875536227657 -1.290275928450828
H -5.927094256982676 2.070829269403551 -1.5029690224839525
H -7.565326362630865 0.698535951831523 -0.2104982986895821
H -6.700732178618706 -1.1274317083651773 1.2574917984994844
*
