!RHF def2-SVP TightSCF PAL16 
*xyz 0 1
C 6.529830253640919 -0.3397361536742625 0.1103561672182912
C 5.474957540522843 0.15882445254480404 -0.5479477954502743
C 4.945480093820719 1.5514497704186037 -0.3544160633099699
C 3.625438321907527 1.5511638759358872 0.3312202702126994
C 2.3681355139723217 1.5090786552373432 -0.13449822845324952
C 1.949836491188917 1.424084589802858 -1.564628895582834
C 1.3101993389747728 1.540755004802713 0.9381131848470149
O 0.6132220186837342 0.2905032209806915 0.899723516942063
C -0.524232172476391 0.25858732836634374 1.6462630473971767
O -0.9473694257488914 1.1737305281397892 2.33630291498292
C -1.1629114664473645 -1.0758866804626295 1.6111130242228138
C -2.6320966154997465 -1.2933273995812478 1.311447019547925
C -3.5386184197915407 -0.1822978113317976 0.9880235735342907
C -4.621870017502855 -0.22155019320279903 0.18833652639972234
C -5.470362706784089 1.000646495801843 -0.038409626864590186
C -5.0848549192820345 -1.4544640751729367 -0.536766114317246
C -1.5813502809974693 -1.7528536362511347 0.3122735099113295
C -1.4196015821867383 -1.0273642953651243 -1.003373891565163
C -1.3372194220289069 -3.2374307619142773 0.19988446803329663
C 2.0780724674422473 1.7124553720926057 2.2466556276322773
C 3.505732552847973 1.6609356233352075 1.7979299165022042
O 4.467009521520339 1.7332477970453435 2.550721342048982
H 7.064846745076556 0.24591121304443936 0.8521926697599671
H 6.870331391095833 -1.3541159912472631 -0.06768145696716579
H 4.961338028617988 -0.4675105512375219 -1.2733793996001201
H 5.659462262956308 2.168022443958091 0.2057852858396545
H 4.86261813707865 2.0291469452356337 -1.3378868750131205
H 2.8042099239272784 1.4055287254358089 -2.247972190731872
H 1.3706142315261973 0.5136206440650344 -1.7414821699714003
H 1.329847524920139 2.2870874371745167 -1.8297719616185413
H 0.6181754079965314 2.374645744099665 0.7613331043953505
H -0.7582823863370948 -1.718347850113225 2.3895169157964053
H -3.1189427132733076 -2.0563325192268795 1.9154080686888701
H -3.3188247610504877 0.7622934661691436 1.4853504664163275
H -5.474291762148169 1.2673397748935031 -1.1006786596296374
H -6.501215183512438 0.8106962349742484 0.2767814915141075
H -5.107957971983686 1.868277514671854 0.5213057001802743
H -6.1112712110954694 -1.701647542851763 -0.24571613739692405
H -5.062053152014566 -1.285277567932109 -1.6181094211630103
H -4.466499427536587 -2.3310003202119303 -0.3281991475304095
H -2.161182827885883 -1.3851873529128855 -1.7257934434296314
H -1.5364719987866646 0.056249124959252765 -0.9143750544576547
H -0.4260756999702251 -1.2202099352499447 -1.42006361488765
H -2.0079656060469713 -3.679759830852002 -0.5452135557946938
H -0.30305788521177196 -3.4304328022381108 -0.1076772232304673
H -1.505706785987645 -3.752911802177616 1.151219409504844
H 1.8847760113634537 0.9178614263854922 2.972619011949487
H 1.8861526224999092 2.6955016636361786 2.688959548159528
*
