!RHF def2-SVP TightSCF PAL16 
*xyz 0 1
N -1.1085575720088636 -2.3991770298368453 -0.6458641916924758
C -1.456415413736152 -0.9850174711377272 -0.7866252970641412
C -0.7447169385036411 -0.08312795989675315 0.25594723603418257
C -1.2244480258814952 1.3764131528030494 0.14452009933186152
C -2.638629092600641 1.5495807125733483 0.6262524073706585
O -3.3205618088480375 0.7418224826951327 1.2322266495473009
O -3.1252226477119716 2.769665028849032 0.32691999931540444
C 0.7772535785806122 -0.12535714191623049 0.13944999769914443
C 1.5474643367338292 -0.5090623005842104 1.2495399512227348
C 2.942106803559545 -0.541063028379221 1.1733935175520536
C 3.578431575328245 -0.1877568888180904 -0.013189245276107094
Cl 5.296235115332621 -0.22531049066017436 -0.10712694108048937
C 2.8327061910843354 0.19766728003269285 -1.1238565540275796
C 1.4378224109958737 0.2298927763402898 -1.0478873235720905
H -1.6685389078745667 -2.953958803553317 -1.291507863348164
H -1.3503780767060498 -2.719847974182005 0.29112998671053875
H -2.5428926594386305 -0.8955563118309104 -0.6823046091195115
H -1.210965887825507 -0.6671138390948929 -1.8060379977162813
H -1.0194049416543505 -0.45861583241620885 1.252070864726694
H -0.5961959886530007 2.0321101205841345 0.7601625180248046
H -1.1655981203460135 1.7193041210542355 -0.8954203683887323
H -4.030030704003921 2.772053086062988 0.7046458718511659
H 1.0659116702225537 -0.7929095843746236 2.1829265382819605
H 3.5221345985951755 -0.8448090764879004 2.0403154199866305
H 3.3280610622918743 0.47051425610535647 -2.051503577730395
H 0.8744294430679115 0.529660716068676 -1.9281770886392064
*
