!RHF def2-SVP TightSCF PAL16 
*xyz 0 1
C 0.5348449944845324 0.0851845582923289 2.250495029378231
C 0.2301040742616641 -0.27303316704642183 0.7781301212800393
C -1.1039838012634484 0.33249032205121304 0.43125251884745114
N -2.269781710425576 -0.2418344295852543 0.24111504216890284
C -3.0993343302172858 0.8290789224538445 -0.021412350306922522
C -4.520766706840127 0.6614306944076072 -0.3066195116358108
C -5.0890221985071715 -0.6212135147220632 -0.3336630988307312
C -6.448855870717406 -0.7932180963755698 -0.6057729515358852
C -7.255883228975374 0.3151389904693621 -0.8538607145592604
C -6.70589009152633 1.5952363815409762 -0.8305708086152156
C -5.3458476147458756 1.7682125821282404 -0.5585899813136842
N -2.4731476444504414 2.0176849764858615 0.015834390547918437
O -1.1558484747910285 1.6925286755944384 0.31996284703768074
C 0.17212936952999439 -1.8065880664554614 0.6135482719178074
C 1.5294875051817032 -2.487381209816849 0.826405193421268
C 2.7350897222410113 -1.6083878784949437 0.47642662188848167
N 2.39336274925538 -0.6426739605867434 -0.5556003557615493
C 3.5429473197234356 -0.011143840383007935 -1.207910345709591
C 4.477976687150953 0.7891691759485535 -0.28596878454347524
C 5.609769566755479 1.4701506312580848 -1.059128368147113
C 6.579362978946688 0.5020722374330621 -1.5880399413388802
N 7.342688263240122 -0.2660401094908285 -2.003932093365247
C 1.3225446628481992 0.2955350657695489 -0.18222642534734368
H -0.24272296693753523 -0.307307808830703 2.9173698146847156
H 0.56393985242213 1.1718274714374755 2.396684174162178
H 1.4915622306188536 -0.3108960059020298 2.5980949976203433
H -4.4732660464071605 -1.49838942530738 -0.1429031420728675
H -6.875600618826256 -1.7928300059475621 -0.6240120103360278
H -8.31365777681811 0.1812580082064691 -1.0658262608570026
H -7.3341602430668065 2.4610032938408897 -1.0242819462985486
H -4.937044344190287 2.7767340678059504 -0.5456251671946922
H -0.5675293019157819 -2.2531432498984816 1.2909734695303001
H -0.1743695179927074 -2.047472464049159 -0.40207620195245575
H 1.620132158910755 -2.8064745359895555 1.8719565530955091
H 1.5520130378758206 -3.403902734421225 0.2234361806597397
H 3.110138637729986 -1.105777803588944 1.3748325537823067
H 3.5432222404433276 -2.26873406460172 0.13741133330632538
H 4.116727537629613 -0.7984991355628713 -1.7125556552740375
H 3.1800042971084324 0.6401701841086274 -2.0136187431007784
H 3.910264861854004 1.5688944690194877 0.2338262588606879
H 4.904478520988617 0.13532467498643463 0.48439282306136133
H 5.198880319937496 2.0757879092805678 -1.8747931413885912
H 6.131359746255994 2.159602502286123 -0.3848014838994036
H 0.8551962982005452 0.6159728539313907 -1.1233835944974053
H 1.7384848550195215 1.2044528583190788 0.26935384587071765
*
