!RHF def2-SVP TightSCF PAL16 
*xyz 0 1
C -3.0313032761819083 1.5966376654494232 0.3192509921026394
C -2.922791572439721 0.21112260914499267 -0.3202292238208845
C -4.225027958205199 -0.5621040011121117 -0.10247413720695601
N -1.831809680053003 -0.5835816204346159 0.2495576385650026
C -0.4968448201210708 -0.14518403671515148 -0.19281810970356142
C 0.6354425378598021 -1.0429133548044591 0.3732405994825008
O 0.5729184826388445 -2.3472427355216214 -0.2194314041441006
C 2.0000397581123446 -0.430946067500547 0.1100407235813137
C 2.663048301566469 -0.6941413637762964 -1.1047932670253509
C 3.9096904017318157 -0.1312102025586542 -1.3844529132686785
C 4.514357567214279 0.714434246870857 -0.4600897547818087
C 3.8681875470720115 1.00249830572786 0.7408905331565196
C 2.61830259725653 0.4400794319143222 1.0236712644516512
Cl 1.8755746303934326 0.8759703135060333 2.5226780662954518
H -3.144700673967975 1.5288299267765755 1.4070600197359246
H -2.1495400951358885 2.2091870325946967 0.10745988629439777
H -3.9013130544041905 2.1344015160631824 -0.07354684868406579
H -2.780416946377857 0.32150157619649633 -1.4022335592901372
H -4.177807040056363 -1.5509712120382155 -0.5725290129846987
H -4.438355710859063 -0.7032494028338098 0.9633406763735861
H -5.071396457546286 -0.026360722667218946 -0.5460759218068254
H -1.882643568586155 -0.5835028406461421 1.2669426757274498
H -0.3263995573201987 0.8895401824804088 0.12369399844128756
H -0.4594413962810424 -0.17674323041126436 -1.2889491927030423
H 0.4871951673766727 -1.1984691952542832 1.4472886704721748
H 1.2617646320751155 -2.8796928369241965 0.2117816370133395
H 2.201347777159073 -1.3438046995308084 -1.8483202964923902
H 4.404703035218416 -0.35181355674106746 -2.3273749330656894
H 5.484329294297959 1.154912999501688 -0.6766465542361021
H 4.342890077563937 1.6728152732440607 1.453516280482672
*
