!RHF def2-SVP TightSCF PAL16 
*xyz 0 1
C 2.0250111801106216 -2.5855736872858213 -0.6784896361975012
N 0.6909746882070251 -2.037161236429971 -0.9880182019456286
C -0.2006302118209407 -3.1681964755875334 -1.2692142523734518
C 0.19816396526466504 -1.1661551332389468 0.14054595077828225
C 1.1263732777385207 0.037093473545971624 0.33962955817918383
C 1.5677789512778761 0.3779295796060399 1.6304659338695098
C 2.429828155526865 1.4586267279355283 1.8324657471839696
C 2.8736675133008442 2.2077096773635145 0.7456402539955288
C 2.460523353687888 1.866396410154284 -0.5350278863911064
O 2.9279697778897487 2.6135055188017704 -1.5761827521775775
C 1.599779015504168 0.7920072417876833 -0.7469320004967007
C -1.3256749939765071 -0.7617776929053235 0.037524761033375924
C -1.7509186287448402 -0.03936687987588618 -1.2608406342868057
C -1.7559052452383805 1.4877869962488497 -1.2046025754245142
C -2.4538665292087125 2.02995324957802 0.03288017527587927
C -1.865894824221856 1.4358619051316956 1.3026135992268262
C -1.9453772915476808 -0.08846689010562189 1.2856873580122405
O -1.4070695333128997 -0.6315858225349036 2.4867257970639005
H 2.3828448658837345 -3.2076623435791007 -1.5075368290695148
H 2.7778936006257475 -1.8011745140881386 -0.5567687959553327
H 2.0156406511913794 -3.2002676985592937 0.22920660842969445
H -0.4048449051206534 -3.7662006108697876 -0.3738465345336333
H 0.23858416575225652 -3.8296486289556015 -2.0257996082986343
H -1.1489169724237245 -2.834961075228032 -1.7008621565563151
H 0.28133317765457194 -1.7879147243968543 1.0444414695924944
H 1.234030298416674 -0.1991427457798174 2.4908506541328976
H 2.756041746897442 1.7131748158353834 2.837021433203775
H 3.5452095455259665 3.0477345655297716 0.8949074119492314
H 2.5846588967498993 2.2298068870000813 -2.3999648671057874
H 1.2949104267898313 0.5189128734944845 -1.753492676653752
H -1.8454377561700341 -1.7309372245242638 0.012767635093758844
H -2.7789358953547536 -0.35550740635156064 -1.487528323902808
H -1.149599398357707 -0.36862229929612883 -2.114916176456257
H -2.2552122194313142 1.8768292484130003 -2.1001527806911833
H -0.7363658799727713 1.8772065817900727 -1.2381992070759866
H -2.3634395114307707 3.1217820181026985 0.05896915323752109
H -3.5253355665268202 1.8009562603229092 -0.01970599618475526
H -0.8356167036207185 1.7761956123777778 1.438387784931069
H -2.411314821375128 1.8204239586397006 2.1735218705393207
H -3.0122889960995605 -0.35205259377228854 1.2922737770351331
H -1.8385713700399455 -0.1775179182935685 3.2315549590133195
*
