!RHF def2-SVP TightSCF PAL16 
*xyz 0 1
N 1.1429537600059148 -2.457809111108558 -1.8763897189069219
C -0.07041781449517363 -2.051881566962109 -1.3916885255112732
O -1.0482935227598034 -2.746146026594804 -1.6591597932158413
N -0.07100067761436096 -0.8293987136333398 -0.7092229124766771
C 1.1081894151373042 -0.3103160465055286 -0.06152289309580355
C 1.9297149710187076 -1.1844229902763934 0.6777429899030606
C 3.0572498977219547 -0.7162559130909771 1.3510121792562264
C 3.379220153407387 0.6329454411940053 1.2986960175162467
C 2.5763998015472227 1.5078092292630527 0.5668112378723171
C 1.434414890582798 1.062104451904967 -0.129123253113885
C 0.6576286048998062 2.040423716700564 -0.9625544862166351
O -0.11323197157302604 3.0324202391065085 -0.26482889580448415
C -0.847012424677589 2.0261523436705096 -0.9818079300338318
C -1.6302065378497 1.0303425088787679 -0.17338764184967664
C -2.801306529196045 1.4568433539219865 0.48617354606211266
C -3.6292013015142013 0.562872924799383 1.1639033650414008
C -3.3065993160495326 -0.7866550630675313 1.1904456546103857
C -2.1485929942294644 -1.2354727016016258 0.5551761125706196
C -1.292116594000599 -0.3415920890657781 -0.11547475557788503
H 1.789381403499918 -1.7318143327242879 -2.1512855770399
H 1.073379785963498 -3.24006260204258 -2.5143967642522087
H 1.6755521086320453 -2.239023021060329 0.7636585976286588
H 3.671746386714285 -1.4035516442014992 1.9267672919878716
H 4.25084466695749 1.008624393947839 1.8285941692620422
H 2.84072642366431 2.5638752691998534 0.5325564233084785
H 1.1403342871995847 2.3653957621955475 -1.8799134640430337
H -1.3120192155081236 2.341297746944299 -1.91191254797627
H -3.0742888360272325 2.5105280494093787 0.45611663325967
H -4.527314661715181 0.920659667933379 1.6602165153250372
H -3.9483841195600156 -1.4934115369853227 1.709765497644383
H -1.9077500401821395 -2.294481740148566 0.6150329278660452
*
