!RHF def2-SVP TightSCF PAL16 
*xyz 0 1
O 0.8742417875764738 -0.6754857866428642 -2.1638555171381895
C 0.5957465338496947 -0.24271216692603786 -0.8354306451146737
C 1.821199763566478 -0.3415253797700985 0.06688314487787883
C 1.7899376816523291 0.14440184848180032 1.3890630342483825
C 2.9107155779034977 0.053529227601535896 2.2184295255802953
C 4.083668077201849 -0.5282300074581665 1.7431747027387137
C 4.129910330459005 -1.019534086894948 0.4413386025039598
Cl 5.57955685542175 -1.7397272322577282 -0.14509655418055575
C 3.013332836671871 -0.9310521090988823 -0.3907623880967208
C -0.6446541497068252 -1.0270492481924791 -0.24453565301394936
N -0.6287615863056708 -2.285888308997266 0.04496302145173053
C -1.870804064588412 -2.8059113407992866 0.6380679141213415
C -3.1199158549831214 -2.0770869842897963 0.149690644396227
C -2.987445249902761 -0.5794018806609934 0.40442166049948663
N -1.7152248964874108 -0.15839126178092497 -0.1190142481240223
C -1.3478023795864549 1.1257834275821104 -0.47506367781976017
C -2.095001468740413 2.288329500471193 -0.45489748435821187
C -1.4978416212304142 3.4796540932831963 -0.8841460297452176
C -0.16646729498657822 3.5009789022831463 -1.3299454606025647
C 0.5930064874932207 2.3321934619251317 -1.3509905872919201
C -0.0063366446381352606 1.1583080541632247 -0.9165472480528639
H 0.07504273936086563 -0.48640054123257254 -2.6825774641116937
H 0.8842064458572607 0.5992604011440534 1.7869095516531164
H 2.8660359018400494 0.4342515320654373 3.2355534438005527
H 4.9533031626400295 -0.5994332652416324 2.390149961061261
H 3.0698246227014145 -1.3293449020138894 -1.4018776546728904
H -1.7943633486385606 -2.7474870495544277 1.7302677171375227
H -1.9558870055133368 -3.8669530155877245 0.37905695345091717
H -4.010759934806038 -2.469134420789355 0.6519309481662776
H -3.2449809605389492 -2.2560015904529753 -0.9260732289476675
H -3.0365249514938046 -0.3693246326169956 1.4790825454040588
H -3.818414920519837 -0.056463119233316754 -0.08179324171386108
H -3.1256878138674122 2.294804039920077 -0.11776108984547085
H -2.0727127007683874 4.403363956130379 -0.8748845454046379
H 0.2760800751028478 4.438162547538483 -1.6606742485702248
H 1.6237779680032538 2.3395173379025946 -1.6930564042865297
*
