!RHF def2-SVP TightSCF PAL16 
*xyz 0 1
C 5.257181806145031 0.2727682695172032 -0.10517104699158623
O 3.8850088390813173 0.6376376772332568 -0.02569576967942359
C 2.9470715640579144 -0.3696906343316817 -0.04607781661934639
C 3.274040497489281 -1.7207891688555543 -0.11831952350502109
C 2.2635482630210437 -2.666071497233006 -0.13261063122014355
C 0.9271271870206461 -2.263397420096601 -0.07182154717095121
C 0.5232483696273901 -0.9052243778975247 0.008081737719687405
C 1.5837674823970145 0.039245778851015226 0.013367520239211816
C 1.26221484884348 1.3929920090228078 0.10106117302014261
C -0.0683148436970989 1.8239325977821796 0.14295430765619088
N -0.22203382545635375 3.24381435811273 0.43175488531070383
O -0.8375541653457288 3.541160891780565 1.464096630358864
O 0.31311744617144127 4.047697982230564 -0.3444876965875935
C -1.1880156150845447 0.9449626827587662 0.07181266391382629
C -2.5896499284240155 1.3319228531665548 0.010382243277326784
C -3.0679934178932564 2.7074773409863555 -0.2532374830965124
O -3.9971218117523444 3.2704188724044743 0.2887213774492993
O -2.414277907945241 3.2324815141301633 -1.3016339361197695
C -3.635390053345 0.40852875547385853 0.09108737797744414
C -3.2978995668766937 -0.9098973930156053 0.16849429613479427
C -1.9838171388910948 -1.3285208643580682 0.14300710988145043
C -0.8701306163704701 -0.4544220390616071 0.07175168186065779
O -1.9370303043781893 -2.6966736729895677 0.21517616924253552
C -3.325191055703175 -3.0596640431133304 0.2903134513370108
O -4.19854169261008 -1.9248497397333844 0.24445669242567067
H 5.475138994888597 -0.2426025062420448 -1.046275404113203
H 5.848439385730921 1.1933673067641979 -0.08637498356023578
H 5.555385472042667 -0.3308746623329355 0.758192013985272
H 4.299371990446972 -2.06983205543157 -0.16516939722657098
H 2.506433550340292 -3.7243107113392298 -0.19324101079964515
H 0.1998632737030321 -3.067657831478476 -0.10179638290563453
H 2.0596676146579496 2.1354303924493325 0.1593630841700756
H -2.8121755759682117 4.12227662135019 -1.4235286238448532
H -4.676941446059507 0.7147668669401361 0.06447906411515535
H -3.497317039698348 -3.603311290442632 1.2262793515869521
H -3.561230580165012 -3.723092863001332 -0.5493915782216672
*
