!RHF def2-SVP TightSCF PAL16 
*xyz 0 1
C -4.031104609583832 2.177949253685898 -1.6704716109843218
C -3.3797027279789202 1.8625704423276814 -0.3450422680830866
O -2.9448472019238117 2.773059904052874 0.3635221664285393
C -3.2872288103868152 0.36838363619573494 0.06858150028176896
O -4.368175453759487 -0.3446822319449817 -0.5270610495500533
C -3.3728919932130457 0.2231030873941991 1.6127700841638444
C -1.9394770461893858 -0.012544555419851208 2.1216985596910507
C -1.049796856761308 0.2106408092968488 0.9023258173448938
C 0.36054657587283445 -0.3926259831761614 0.9103233349916172
C 1.1521174226922288 0.06722299582559625 2.1446053237657696
C 2.5639157831892674 -0.5046799334462474 2.1498645417079945
C 3.2714385374740247 -0.15229671889644392 0.8673979388634679
C 4.412661757136762 0.5591230674129064 0.9113101699794272
C 5.113700462786997 0.9918506261015676 -0.31298918688986777
O 6.149637910649863 1.642021607420182 -0.2593944627603961
C 4.510925661122666 0.61042650731812 -1.6010831200486377
C 3.3757746528931043 -0.09897901339153206 -1.6461855510028545
C 2.5828772769651187 -0.5886057893014324 -0.4388759822104679
C 2.600717585606967 -2.1319240583495978 -0.5296423607577209
C 1.1073001170260932 -0.007629273998191301 -0.4188438713843985
C 0.23193631889602023 -0.3447342991032664 -1.6693554901823318
O 0.7667828656461565 0.24387018873087515 -2.854696948827924
C -1.2249950115542707 0.15558967020255265 -1.5661004141951185
C -1.9139766254897062 -0.29180251252593326 -0.27188281398145336
C -2.0813281885803163 -1.8387282866881347 -0.3096989242789524
H -3.8236666818449363 3.217438440571375 -1.9402619642702006
H -3.6299238868231765 1.5341917292430272 -2.4558141083060696
H -5.112044271945219 2.0415735639195356 -1.5880452987948914
H -5.184848972953467 -0.1055735215518394 -0.052989353835670744
H -3.803655022194798 1.1121433399817666 2.0869622998562525
H -4.00992172807341 -0.6206219584601016 1.9048785780316402
H -1.838807595944061 -1.0324972255928495 2.5097608026935294
H -1.6927280900209534 0.6756402972635639 2.9368373330615283
H -0.9164214620197443 1.2990454267771403 0.8089180448145045
H 0.2756051349512396 -1.482364910821846 0.9757654863669168
H 0.6441050424211796 -0.25246460596400955 3.0618387015369937
H 1.196872727772476 1.1638999870319235 2.1726764577918143
H 3.0999482914118355 -0.11470199908489867 3.0238309644426424
H 2.533217436560406 -1.5933059311611384 2.272230525858739
H 4.874983440609442 0.8732605805789455 1.8403179779601522
H 5.042341329293209 0.9156551595705743 -2.494102927407789
H 3.0131969478307967 -0.38769864855586356 -2.63100993628443
H 2.205866601631893 -2.487658925021178 -1.488258564785091
H 3.623568488438752 -2.521205759413408 -0.44279051635707284
H 2.0119700333024357 -2.611602716001103 0.2574544107049821
H 1.2170173432434257 1.0896625358096323 -0.4171523229804943
H 0.2264388258620453 -1.4249605287757925 -1.8381168387958482
H 0.8353350954729328 1.2045416142419187 -2.71073829511574
H -1.2082560843675012 1.250542165109016 -1.639486276048168
H -1.790292615049757 -0.18260925697219463 -2.4441167005625335
H -2.674487075796348 -2.1402806918341732 -1.1811297523396904
H -2.591772481281181 -2.2243140228960145 0.5786896469635194
H -1.1304491730226607 -2.372313277715686 -0.3816159082675075
*
