!RHF def2-SVP TightSCF PAL16 
*xyz 0 1
C -5.294770793622039 0.4938244008594978 -0.1473312947489147
C -4.34897825995027 -0.684239464855303 -0.3307439788818425
C -2.996418171726916 -0.49591337141699504 0.38093359166575486
C -2.125431944063453 -1.7784036519695348 0.24573522929177152
O -2.3887497588469495 -2.6482520756642898 1.3260915641511397
N -0.6872670317882005 -1.4498117627259102 0.24526799758958806
C -0.4436887936384884 -0.45739141841798975 1.3357303598056447
C 1.0481891569852386 -0.22197342298894757 1.464795809011352
C 1.288774866323677 0.6910865421094292 0.26284743125717225
C 2.7403542412351967 0.9665437166145151 0.07111254712198223
C 3.568307013714156 1.8647071322462632 0.7220597009894147
C 4.934492585863897 1.8297522991100215 0.4360672502647317
C 5.452410527103561 0.8973961879105703 -0.47724826074651056
C 4.610217420195061 -0.01014893251326841 -1.1259018776669028
C 3.253140311079763 0.03534172025370291 -0.8541307889627883
N 2.25076254560462 -0.7870343020593367 -1.4599539638388235
C 2.406884770708543 -2.200698186853037 -1.1445975935386996
C 1.01646085598104 -0.05275656467195898 -1.0728664367182297
C -0.34216283847873696 -0.8096548061828504 -1.0772461122264505
C -1.4616041158296713 0.2121808498074028 -1.444874846776749
C -2.128660883501089 0.6850688023427549 -0.14268264863161273
C -1.0329280898123905 0.9352110260869486 0.9363805733851528
C 0.203237235834645 1.7661623948424143 0.47434550848919244
O 0.5604500917166808 2.649327908614216 1.5415228537643668
H -5.435460416154465 0.7249860507680062 0.9131832341127762
H -4.924233340494861 1.3901263475063956 -0.6523786504582855
H -6.274774372205789 0.25694013389091747 -0.5741951409970447
H -4.20991081963322 -0.8660571247384042 -1.401791805026823
H -4.8370570688174155 -1.5799051115347915 0.07385510505717689
H -3.2271955961761667 -0.3208984017490865 1.442157796521277
H -2.3742382930199963 -2.3383327978519217 -0.6643396757252367
H -1.5515012817537506 -3.1341822009837217 1.4237159821362382
H -0.8428495688015858 -0.8168605342583803 2.291490607072298
H 1.6222573803459004 -1.1521192347061815 1.4642223526879485
H 1.284919111911521 0.2860909178803153 2.408960639895422
H 3.1742951439249674 2.5629450472028656 1.4535905906411073
H 5.606559723934764 2.5238001880261867 0.9349134613993345
H 6.519218815682416 0.8842342322490611 -0.6854478458610502
H 5.009337133420996 -0.71487424176964 -1.8464857300584245
H 2.411560607711817 -2.4009193997835556 -0.07008018450643877
H 1.6002486283928445 -2.7842632033712467 -1.5984803617642038
H 3.3411758136127396 -2.5881641056085263 -1.566562510225447
H 0.9461441989851241 0.7101424964617934 -1.8662567379327586
H -0.32117528806752216 -1.5801760279940456 -1.8570609657005284
H -1.079777080511547 1.0703545697378487 -2.008249605446913
H -2.1940426020739046 -0.26258998733354655 -2.1078068979105726
H -2.7121792756125283 1.5946915088939035 -0.3073000754397257
H -1.4996023688421976 1.3934748827374293 1.8180322685071206
H 0.018326767306240978 2.38222835820642 -0.41069022269340755
H -0.13306689415248923 3.329002617643955 1.6051670048059778
*
