!RHF def2-SVP TightSCF PAL16 
*xyz 0 1
C 5.091894379909351 1.4324311712119457 0.06196109633440928
N 3.683727114262204 1.0519672378376408 0.15080040533093036
C 2.9566092155819224 1.250989900539086 -1.1159593932388012
C 3.3348728046358045 0.03469049012720448 -1.9684490241915797
C 3.6915551929410158 -1.0535034979590212 -0.9520840688582121
C 3.495892826639454 -0.38615828156151727 0.4139077213295567
C 2.0553354109881212 -0.5429862977570697 0.9329893362171403
C 1.0139247738836457 -0.04692201971032174 -0.08345432697848042
O -0.2529452765380171 0.18997100245097234 0.559505419717163
C -1.023588529203167 -0.9084046037198097 0.803572998598371
O -0.7116144550479365 -2.05981919866892 0.5223005926956745
C -2.334843140902497 -0.49968140465349625 1.4508328745488919
C -2.864880982203553 -1.6583858186502347 2.305606822980582
O -3.746286217749202 -1.1624394389246013 3.3160606881069152
C -3.3591331602722145 -0.030774557400095215 0.4274270163602391
C -4.0715215155603985 1.1572815212188703 0.6506931344236752
C -5.020169537935801 1.602620114756534 -0.27141355778811416
C -5.272760933794238 0.8644600056336602 -1.4252880611220096
C -4.580660640112927 -0.32214812535358145 -1.6560988352102755
C -3.631916090266376 -0.7703893755274596 -0.7350007802890359
C 1.4611158312943529 1.2616847680459127 -0.7531764899619323
H 5.6495642130778725 0.8933584689057169 -0.7106841353465805
H 5.177989425711179 2.5049575225540144 -0.14440267860778175
H 5.588672278417419 1.256907453406578 1.0225342829232797
H 3.2110429339643307 2.1956617375062826 -1.609464114338068
H 4.211496385280524 0.2552754241439499 -2.5891507290364975
H 2.528680822473693 -0.2806225039086211 -2.63884584755553
H 4.737404218979994 -1.3525807565993606 -1.0900387969229186
H 3.07413465575636 -1.9488251639533603 -1.0787082791918965
H 4.190536708766695 -0.7757530463037726 1.1665045994467989
H 1.8606919419741335 -1.5948922315353617 1.1748342300700874
H 1.9375468993427356 0.0037643418659234 1.878569515767746
H 0.8758906774345956 -0.7983616149570151 -0.8719545676524646
H -2.1023930070537764 0.3317113716778643 2.131467942357128
H -3.4049248543344524 -2.3997985421261694 1.7061375549890532
H -2.0468188291375955 -2.1707330468986332 2.824140951305935
H -4.139211866025982 -1.9374230998136703 3.7540883103757796
H -3.8964318828635482 1.7415139632683754 1.5521060144448902
H -5.56465838948893 2.524654883794205 -0.0853782433509215
H -6.012314204439382 1.21163233683181 -2.141747034888481
H -4.781286308838563 -0.9015204899561107 -2.5535073904168653
H -3.110185905127878 -1.7044219882389617 -0.9361661244456427
H 0.8540354498245061 1.4305271233538022 -1.6515310843914057
H 1.2459315657574077 2.1104842650459052 -0.0894672173382525
*
