!RHF def2-SVP TightSCF PAL16 
*xyz 0 1
C 7.276533916014545 1.7627955132968367 -0.9318309292920584
C 6.112523401615191 1.152230899438508 -0.19161005898665662
O 6.2233677284870765 0.813820572688176 0.9806426068471424
N 4.970599505969892 1.0830677951396461 -0.9696696892710074
C 3.7216843167941898 0.5383253446075876 -0.6069941620137402
C 2.6686247400622327 0.6961357881553886 -1.5146287307879176
C 1.392702145910519 0.1863765682107264 -1.239158175378096
C 1.144388916582584 -0.49538319841276557 -0.046374288682693145
O -0.056414401413498766 -1.059832717852397 0.28668031486208284
C -1.1620993180504402 -0.8743751205473482 -0.6088133389893036
C -2.371780645524906 -1.5913615212077208 0.003883320540213636
O -2.087181341638171 -2.997378907966448 0.07684423397962384
C -3.658750766292861 -1.4017315522987435 -0.8232030597055688
N -4.148998978956876 -0.03248151682009823 -1.0135802222437074
C -4.462981847282799 0.704679241178608 0.21510085841641524
C -5.583659435656197 0.050367672198287396 1.0244916753360114
C -4.876234504980247 2.1261680602963517 -0.17762017666977595
C 2.2006657173036697 -0.6508878109590173 0.8652642807999332
C 2.026936645375541 -1.3678000362817475 2.153291358440802
C 0.8392497695128639 -1.0289631818779903 3.0154001085113205
O 2.857936756658117 -2.2050474833256026 2.496797931113562
C 3.4825098999452075 -0.14909724436406374 0.5810900721611729
H 8.2119238301419 1.3770557387201565 -0.5162579047970817
H 7.246891534291614 2.8495062216242433 -0.8179843655342762
H 7.247335498666652 1.504553514506013 -1.9943344717672613
H 5.02361865466373 1.5083964046360705 -1.8866748515638072
H 2.8223942034594116 1.2192268545807075 -2.4560019672533984
H 0.6222619624619068 0.3327819237474775 -1.9894993207835532
H -1.3668514983953346 0.1958998045984067 -0.7183391602700014
H -0.9223284847341343 -1.3269470582218417 -1.5783609559780785
H -2.523963807244049 -1.2591585430828172 1.0366914361111579
H -1.225949891300181 -3.0826924279024244 0.5283204853346742
H -3.493544562534246 -1.8319133930081517 -1.8200019277932609
H -4.454232383987059 -2.0274883647323065 -0.40011362267674805
H -3.5026129914347814 0.5016985891316837 -1.590822738920635
H -3.5684642217045814 0.7883345593741523 0.8427716522795383
H -5.860148631838332 0.678415400912415 1.8786540848328797
H -6.482318828681572 -0.09917648612909859 0.41563893207403013
H -5.2771035593078315 -0.9207589852043366 1.4257756034566427
H -4.073476407958282 2.633395156850653 -0.7247279558344127
H -5.770682041107981 2.124964789333334 -0.8110315678104146
H -5.095771656277617 2.7253029813975167 0.7129067834353106
H 0.42070968276776 -0.053604864086895715 2.752568336854171
H 0.07491011758492164 -1.8027977420455907 2.910165828927687
H 1.1645567606766327 -0.9747621867363884 4.0585925865368395
H 4.273224501357693 -0.3198590515613546 1.307319745932543
*
