!RHF def2-SVP TightSCF PAL16 
*xyz 0 1
C 4.9441011043230985 1.6161152928176166 -0.26158185287545904
C 4.290419255424766 0.44837940761598727 -0.1333275869497248
C 4.94906081821197 -0.7621945321064897 0.4682220365715988
C 2.8678136600494617 0.2643516234711532 -0.6059633106035365
N 2.0213040556569 0.19461274110751847 0.5739409561707401
C 0.6321912114194482 0.12811889594129913 0.41865514946147786
C -0.17719846868129033 0.4241415315157622 1.5230461529887782
C -1.5715861698758427 0.3174336543600743 1.4598647719234659
C -2.201942673526086 -0.1203793969315842 0.28921136974646017
C -3.7165402912077288 -0.24584400705431775 0.2422185500628501
C -4.155946838231056 -1.6923436613352456 0.013019925506067863
C -4.368109693541895 0.6515156336017668 -0.7970778578339813
O -3.8892900535958317 1.0827618524195541 -1.8327540116479693
O -5.652591859415454 0.939882462739204 -0.4875945988374398
C -1.395556989704154 -0.459784156096562 -0.8039603699903003
C -0.0003582168699085211 -0.3494070704392058 -0.7323527089814499
H 4.468785952609423 2.4877829383551657 -0.7019802336610068
H 5.970085710667443 1.7329609452696855 0.07452332748880179
H 5.987689856399803 -0.5641209370562527 0.7538614986563291
H 4.414855213244461 -1.0862519943072553 1.3669730209627238
H 4.95508519461927 -1.588031831715565 -0.2505674993411488
H 2.8053696627778413 -0.6543670719142792 -1.2007331739535048
H 2.5633164921051583 1.1032671997094283 -1.244221841068068
H 2.2831307437914905 0.8900978427413075 1.2682029278598477
H 0.2778390119014996 0.7445646766659783 2.4572901326204457
H -2.1535828508270973 0.5703953688181272 2.3432525875879984
H -4.10745182853449 0.07780476970990374 1.2167517175125866
H -5.245853744921503 -1.7829385174201402 0.07988098793111036
H -3.8634922514818233 -2.054445135406311 -0.9790883049173665
H -3.71575325605823 -2.3617682829441695 0.7602038893339627
H -5.946807803510078 1.507026361060472 -1.231493029853152
H -1.8420469420257126 -0.8126774114266542 -1.7316786836825997
H 0.5730619888061728 -0.6466591917660797 -1.6046445682396107
*
