!RHF def2-SVP TightSCF PAL16 
*xyz 0 1
O -2.0084758348633147 -1.7304396465134393 0.7505711078946866
C -2.0004326718574377 -0.7423394782597663 0.01700098950150513
C -3.1658646255163503 0.23599538303958398 -0.0012826500346522227
C -4.308179508542283 -0.12901217544599933 0.9475277967494591
C -5.031492122039525 -1.4156907656381899 0.5473065445145822
N -6.333309221056976 -1.512958181407813 1.1883598893023075
C -6.6243733529813476 -2.129568099126453 2.3726371494900036
C -7.971664345583804 -1.9364990419276107 2.577726342804573
C -8.401211376689263 -1.192452440462332 1.4612931590728349
N -7.404785014514614 -0.931222380924744 0.6102428794097534
N -0.950866733853102 -0.47569039204292923 -0.8601017697571527
C 0.24578753865246247 -1.3268523202820568 -0.7506213666626577
C 1.109751806767067 -1.3275273079342886 -2.0275858170695327
N 1.3776748668224872 0.03921219865867178 -2.5332877114600603
C 2.4132602502769913 0.7245061173031312 -1.8808565872186858
C 2.8710068469005994 1.9280839802553589 -2.3839759753844536
C 3.900104170392553 2.5662702210619353 -1.7116048984020316
C 4.397734600339787 3.9059864829753086 -2.225101801096247
F 5.703879015909838 4.16085724845649 -1.9342592240153036
F 3.684416724123627 4.952915160043801 -1.7157523052782213
F 4.29427430251817 4.02620046024553 -3.5834553022174447
N 4.44618981816247 2.0429917773430812 -0.5886252146599068
C 3.9772259392736062 0.8534814840279322 -0.17869477630148625
C 4.596508925144477 0.23661903120028277 1.0129076538520654
C 5.548849463883865 0.927429231101329 1.7884864893941388
C 6.149273511649857 0.3393067751321738 2.907521537680981
C 5.807956873813552 -0.9574581912597058 3.279755733820598
C 4.8685456721680485 -1.6650128899481973 2.535820900276031
C 4.270006582880353 -1.0731924047129169 1.4181901672713142
N 2.9837470052919888 0.18340168525046632 -0.7927683403729076
C 0.12690567052818086 0.8005886142743258 -2.7344262607751864
C -0.7172570278460164 0.8544326908268137 -1.446410960990931
H -3.5524625723300916 0.3056425428878251 -1.0251705505175717
H -2.7870662009626366 1.2195508775803139 0.2990505020459474
H -5.018541611227195 0.7092727331137809 0.9498585383234466
H -3.9369755001559503 -0.22095615877361288 1.9768371451281006
H -5.2033979383492674 -1.461162599539155 -0.5358264766014498
H -4.462861235164305 -2.3081051835578674 0.8342528188777456
H -5.865575432988239 -2.63689018841174 2.9554179338776057
H -8.561433087245728 -2.280791571365259 3.4145117168218455
H -9.396734029386936 -0.829174630098222 1.2329630056205936
H 0.814695579175676 -0.9625118643675487 0.11338824208859768
H -0.0532888778558613 -2.358196418879276 -0.5249171648110744
H 0.5621216974947048 -1.8647945576165739 -2.812755714510632
H 2.037127949192112 -1.8941578973689686 -1.8754279984374542
H 2.462190070406229 2.349248597686779 -3.2943493885650397
H 5.83594520769773 1.9433499969857553 1.520882245764592
H 6.882852059224501 0.896754851858767 3.4845101861111827
H 6.273178909223695 -1.4162288914358712 4.150336026913037
H 4.600351961970294 -2.678432140562384 2.81932289892342
H 3.542043364234118 -1.6521928346776564 0.8526639573369773
H -0.45385923832492187 0.2901343022389578 -3.5144638156834147
H 0.3048704736604782 1.8143061934827314 -3.1077294772497313
H -0.21280356715580628 1.455337767444906 -0.6794658101849976
H -1.6655657312888374 1.3476342480646575 -1.6744337249492316
*
