!RHF def2-SVP TightSCF PAL16 
*xyz 0 1
C 2.7725288255971656 1.3941617972212137 -0.09086180784266285
N 3.0627847372405452 -0.009459160056633378 -0.3887110705792528
C 4.222321942624032 -0.4563112161917043 0.3835537618933592
C 1.8971710037494065 -0.8776230832052185 -0.09927501628233011
C 0.7319391229914246 -0.6130729870471922 -1.083464752540213
O 0.8854356537448151 -0.6908500329262474 -2.3034613659009855
N -0.4686572984510018 -0.2441448969631691 -0.4457687640025948
C -1.0777035849018464 -1.15184725049426 0.4987945705393335
C -0.6957909815332185 -2.5132365683252575 0.49595399040783744
C -1.2420563015025514 -3.439404416676181 1.3894025421855176
C -2.1988487729251394 -3.031647601863276 2.3046375360304645
C -2.616573295381338 -1.7042264848065087 2.3078535881664686
C -2.0751262954574416 -0.7693361529898163 1.4057635131590906
S -2.7000533160887574 0.8790026102821864 1.515385376698436
C -2.2203844180047083 1.504028738121431 -0.07309474062625605
C -2.886281442227336 2.67215693403456 -0.49354010656852443
C -2.526995221149222 3.3178973852412548 -1.6707998448011028
C -1.485371183169568 2.8088490627937936 -2.4274806239687674
C -0.8196720320060125 1.6492770694895615 -2.0125980055207076
C -1.1814433963139968 0.9493447841740091 -0.8419089688843018
H 2.483772583827452 1.5438882469446866 0.9557812761749627
H 3.6490762088224744 2.0190654179121257 -0.29685654396583583
H 1.971021960358269 1.776485394968726 -0.7296459259973398
H 4.480556499543789 -1.4900435891556332 0.127971671072342
H 4.046076342852223 -0.4013667403747898 1.4639909962245579
H 5.102051246502104 0.15218803237024575 0.14577164484639332
H 1.579874040475544 -0.747106129896151 0.9417019723284337
H 2.177025646412513 -1.9292033965627762 -0.237679259174954
H 0.007509198940554008 -2.9017106993146276 -0.23774178266834362
H -0.9275647665613388 -4.479911687085998 1.354947736693288
H -2.632380457736605 -3.743529766731126 3.0022409567985573
H -3.3807506879890674 -1.3995523064284512 3.0212180536498314
H -3.687560850701924 3.09587822363007 0.1093924782127043
H -3.0479392025214875 4.217938612585429 -1.9854078175657217
H -1.1819012988439916 3.304888970289223 -3.346489166567098
H -0.016090210214419004 1.3085328870367832 -2.6595761016242743
*
