!RHF def2-SVP TightSCF PAL16 
*xyz 0 1
C 4.514269241985791 -0.3173535067929264 2.5206864063111647
C 4.080729980755602 0.2071591006368151 1.1510464947746668
C 5.304516363715146 0.45009091398688406 0.27573450627994145
O 3.3509558355686555 1.4549138986453094 1.2899190062112693
C 2.0277542890119244 0.9800077504173672 1.2742464115969452
C 0.7909395980848277 1.8054125530304068 1.0725598244991945
C -0.25623478178363507 0.7292610544019902 0.599319390031976
C -1.1014016115995442 1.3211047290814109 -0.5531783954741284
C -2.0288790566961117 2.4685386184319884 -0.07024995848463841
C -3.517081432291845 2.13190209574677 -0.08408870793660578
F -4.147351751311385 2.979438928816267 0.7772843140410738
C -3.6840466700490033 0.6974052116300081 0.32570620238687026
C -4.142669590690775 0.37358789740682546 1.5483065502864803
C -4.11704280346542 -1.0185679889389407 2.0369274242031796
O -4.563142515067819 -1.3214823745024997 3.135083317792595
C -3.483258007128743 -2.023324292993524 1.1617189475720577
C -3.041885508107368 -1.6962557951673942 -0.06109461165913878
C -3.1657320053955 -0.32107797296423657 -0.7003786281377298
C -4.275342015652498 -0.5064618014958927 -1.7726620743972814
C -1.8513963331018803 0.26511566659882985 -1.387284336106612
F -2.297709707775306 0.978055324253734 -2.4967197108018615
C -0.7988697765405943 -0.7051037882943042 -1.9600598302456178
O -1.401581718855082 -1.6878092748056637 -2.804418950377145
C 0.0523538469313171 -1.425558413406317 -0.9146214012213135
C 0.5794092131385068 -0.5969590017309838 0.28334533976870657
C 0.5091824523816831 -1.5689920876165364 1.5016271596984179
C 2.033829129973205 -0.03816590537240504 0.1500141350796367
C 2.3163429178033943 0.5163616720037032 -1.2755122914915797
O 1.9567145372379704 1.6380689510807804 -1.6407399000584182
C 3.0575388863488904 -0.39200641683375 -2.273350247396626
O 3.234261169904969 -1.7507135710325796 -1.9357827298046903
O 3.1910380903406868 -0.7939059037075236 0.5425947736186146
H 3.650024559377075 -0.5519606242559721 3.1509513446413036
H 5.091610174593418 -1.2428095809919648 2.4214956977983286
H 5.113724143703533 0.42564705662622154 3.0568434944203178
H 5.0349415067427605 0.9735516070784793 -0.6454321979550366
H 5.788689694267797 -0.49118178742633245 -0.002963735757007635
H 6.031757166468365 1.0908408701813597 0.7863587223837323
H 1.9026913701803903 0.5220619623494703 2.2628854192192582
H 0.9514713490532826 2.6174165085108956 0.35763589420776765
H 0.4715681480130039 2.27820350519773 2.0081035843353843
H -0.9268509411657572 0.5131948992437831 1.4414176591655337
H -0.4110249906658009 1.8124021500817673 -1.2498173271663988
H -1.7428621946921925 2.8116094365967235 0.9317263205034249
H -1.8803375842711487 3.3444426262109106 -0.7159920794011955
H -3.953730733660384 2.3107869763638655 -1.071055994312519
H -4.48912639339011 1.115411632841531 2.2605037449641285
H -3.4276270301758256 -3.0335588426010256 1.5499366194601136
H -2.6630652975834295 -2.5039495588440275 -0.6859563752215384
H -4.528353306663907 0.4320683403807774 -2.278207227649838
H -5.206958784735381 -0.8820671639959675 -1.3289273390069567
H -3.974979408783083 -1.221577289899341 -2.5464421083169637
H -0.1267040624859285 -0.13583438738252548 -2.613528162580148
H -1.7901071053314406 -1.2069117528131408 -3.5602415074385467
H 0.8791246741810816 -1.9305836676264403 -1.4223554715537656
H -0.5226638845547111 -2.2831280844007398 -0.5489157194763107
H 0.7804595322993053 -1.1088908956237835 2.4540566840405122
H -0.5079148467169285 -1.9508921147059302 1.6397586351844589
H 1.1691605375728342 -2.430563027766661 1.3485014710950816
H 2.491668145297332 -0.367578676425496 -3.210299378968193
H 4.042334485543092 0.04228665470893786 -2.4654804111349327
H 3.6268708099118383 -1.7811230421259494 -1.04053868603872
*
