!RHF def2-SVP TightSCF PAL16 
*xyz 0 1
C -1.169146820208032 1.9648103401533186 -1.546428298894808
N -1.4030612725423588 0.9085597657338843 -0.570827327980406
C -2.2999399799444378 -0.09280424682309257 -0.9084706870953255
O -2.8043912984771424 -0.16596079385068643 -2.028814964815966
C -2.755679892256834 -1.0515666932842762 0.17671280433289915
C -1.6592312362384878 -1.6066620658955109 1.0511487832941901
S -0.8425610158689042 -0.29347702447590207 1.9062296472601794
O -1.8444588654724234 0.4008769035120437 2.6957489589771377
O 0.33391614439862466 -0.8454036720764859 2.5506580445457367
C -0.3887963455356645 0.7580408975818452 0.49639567351281627
C 0.9738030463737429 0.3073571644158357 -0.031447443364850884
C 1.1148264437425364 -0.6449759972788963 -1.0542899703874382
C 2.3823646829903056 -1.032647762405214 -1.5015111486194388
C 3.5333665052503616 -0.4783872036335788 -0.9373314034637531
Cl 5.061695355935241 -1.0032669289277374 -1.5458517702502077
C 3.414224270069601 0.4706127055379309 0.07993490529863412
Cl 4.7869771492237305 1.2090306583704982 0.8246370644759945
C 2.144183460745305 0.8586162249864733 0.5267082497944485
H -0.8720752630725069 2.881147999238443 -1.0284954948835132
H -2.0787308232020227 2.168955062723972 -2.1194600755987008
H -0.3817602743987855 1.6552836199843513 -2.2391486315896927
H -3.5100198851877185 -0.5277777802766783 0.7755106535567218
H -3.262655454590809 -1.890402049479663 -0.31528669470166076
H -0.9112439065015036 -2.1523164812315247 0.4699434415366892
H -2.0683557896897278 -2.282795228003886 1.8080388093185815
H -0.27828935417991346 1.7576730165036145 0.9380629212836157
H 0.2474174390638074 -1.0938741676738488 -1.5350000071897516
H 2.4651037534191707 -1.7693807588446127 -2.2983911941129604
H 2.0725192261555687 1.5907344954178582 1.3310228811820195
*
