!RHF def2-SVP TightSCF PAL16 
*xyz 0 1
C 4.298495670099828 0.8593365446269878 1.2253888539170275
C 3.220687871625839 -0.2175005384053165 1.2339306043212248
C 2.6692411583135316 -0.5464585247755146 -0.16762538628738283
C 3.763599459562148 -1.1148164235038776 -1.0799381740071683
N 1.5995817583224579 -1.5522566665757964 -0.07264516200072359
C 0.293449859485436 -1.0042790819271012 0.34765741717395404
C -0.46055877890681673 -0.25635343579224484 -0.7816569571816309
O -0.5387690276167816 -1.0966825039648693 -1.9418836212507105
C -1.850097122399945 0.17549774234919355 -0.3617898279138489
C -2.87051205319474 -0.7643875870590853 -0.15937174963696746
C -4.150568695676005 -0.35474596029271477 0.22594488247393754
C -4.428557438858777 0.9925485991847519 0.46044012432520615
N -5.737909135961855 1.4071334810926477 0.7283239257706926
C -3.4302767962177523 1.9339521793866032 0.20378231142796202
C -2.147087218424625 1.5322136043416577 -0.18222390434176539
H 5.209938184582979 0.5140504771902835 0.7291850734173009
H 4.566444229961713 1.128400027351669 2.2523758407202688
H 3.9463666655072718 1.7638524835255849 0.719651730012545
H 3.626604411186858 -1.1226399735599775 1.7032876491290692
H 2.411970527592121 0.13551725696066982 1.8836584987696565
H 2.295286824195008 0.36900119137192927 -0.6398394042634389
H 4.548186902419626 -0.3750352953619195 -1.2667726135169046
H 3.3549727357208496 -1.394388437348036 -2.0580494128884417
H 4.23088383772892 -2.003915807853746 -0.6418605617879952
H 1.4383017516296273 -1.9624511779966214 -0.9991432560264663
H 0.38228510766223645 -0.3734984459584731 1.2384009221035412
H -0.30255421164354956 -1.8736869871719637 0.6519458454020912
H 0.11271578695847108 0.6265561765240681 -1.0851390505934744
H -1.3134477038544872 -0.8021214176569221 -2.4520444173322766
H -2.6785038336524734 -1.8247536376015256 -0.31517238012523086
H -4.930223424299086 -1.1028199491801511 0.3433834282488976
H -5.79643167583166 2.312144359266985 1.1842779340645078
H -6.302110580009696 0.7042765524502475 1.1956410483966269
H -3.6428210439068933 2.9951964088060046 0.30384050919783817
H -1.3885840020996307 2.2931147675564416 -0.3531191060965803
*
