!RHF def2-SVP TightSCF PAL16 
*xyz 0 1
C -1.4905536955755956 1.208169312727351 0.7681063216135621
C -0.6033558399509185 0.4364336241457781 -0.23415039543230107
C -1.494393800319926 0.17370376897991138 -1.4631537924254618
C 0.7720158088215493 1.1296832583669434 -0.5109647304293017
C 1.4357367101159044 1.097345603809944 0.8940987001204063
C 1.0074713882368174 -0.28282583641624337 1.447405676992983
C 0.07909546432763619 -0.8338439361095444 0.3360624305676105
C -0.806617043359993 -1.9811118532953564 0.7607173666330662
C 1.0413269165007866 -1.1591878942238263 -0.8211929700488961
O 1.3386949013799123 -2.2831606067564696 -1.1976970808930356
C 1.5963619008106897 0.13909578011511398 -1.3656478243102521
Br 1.3328002565496944 0.31465226671188734 -3.2587262494676525
H -2.4111309699234336 0.6525573811556508 0.9815272193469253
H -1.0239903059393392 1.401352033496811 1.736151593220736
H -1.7771757038076819 2.1796324638358375 0.349109699754886
H -1.1119843663215345 -0.6002985090665168 -2.1318023335320606
H -2.4869930350646023 -0.17894632299520047 -1.1574974674463223
H -1.6372425197932023 1.0936170717053006 -2.0404411737642962
H 0.7056667091182894 2.1389311237625113 -0.9256103638628088
H 1.0688801518610913 1.908270045398286 1.5316373844711488
H 2.5258382166368025 1.1948274562380792 0.8505173162041392
H 1.8811018247571694 -0.9245946189345483 1.6106014205055783
H 0.48936729576450433 -0.1721004420824769 2.405948480259998
H -1.3930302827708223 -2.366600665956064 -0.07985770552719618
H -0.2076938143826819 -2.814514078167397 1.14418037565527
H -1.5017414996718015 -1.6776774479567476 1.5497880698554116
H 2.6715453320008633 0.20659102151094288 -1.1791099680620227
*
