!RHF def2-SVP TightSCF PAL16 
*xyz 0 1
O -0.9772736205743476 -2.9968535697260337 -0.568463115339735
C -0.5217644589430066 -1.8642184521023788 -0.6389064286183593
N 0.7324854042813845 -1.6156172272306355 -1.1203484380326967
C 1.4129548263581377 -0.3799365051483315 -0.8234131911143729
C 2.072608463944668 -0.4066982135638565 0.5648482434021054
C 3.0763688389263377 0.7207439580292134 0.785434634149804
Cl 2.306069405624264 2.2968970117860077 1.0609926813821433
O 0.5416659023734708 0.7412810916995558 -0.9916513155232819
C -0.7065845513177114 0.5793353897204734 -0.4545808286685149
C -1.4234611229287664 1.733826867343624 -0.1472727878706768
C -2.7041594179316406 1.6315204926150584 0.40116564860449955
C -3.2727829103046564 0.37629564675529237 0.6307439362840174
C -2.5635462840212933 -0.7810333620191031 0.30694663442475734
C -1.2815569407066485 -0.6709263988181158 -0.23686096192011521
H 1.2708573744202274 -2.443778260100409 -1.336086486664596
H 2.1948967623188835 -0.28769281141225156 -1.5857408237573836
H 2.6133162834349166 -1.356433133396612 0.6704904828935374
H 1.3184660144042857 -0.3892025876665566 1.3610729133681687
H 3.758803430465162 0.8192914629398003 -0.06430324935869403
H 3.6772119759054087 0.5078903015079733 1.6750359105637482
H -0.9825941633249341 2.7114170839942418 -0.32452047778360665
H -3.2603097066779996 2.532949076070437 0.6477148771594893
H -4.271944338055509 0.3006472778039461 1.0531294551345156
H -3.0097271676707624 -1.7597051390810823 0.46692387390752027
*
