!RHF def2-SVP TightSCF PAL16 
*xyz 0 1
C -3.5893162093868267 -1.383148877014968 1.2412957966502667
C -3.0813008583936607 -0.19616319699350102 0.42025416327603776
C -3.5900253724354014 -0.282139012277491 -1.0114181019839972
O -2.932739218601727 -0.3753300274379128 -2.03506029019511
O -4.937163665826837 -0.22174658896268204 -1.085089473251327
C -1.563956402838618 -0.07275701525846792 0.5034996259717566
C -0.9858972008581876 1.1002361449763038 1.0135899337590577
C 0.4017920135566091 1.2319636014065465 1.0931769093404653
C 1.2305655851179607 0.19304801735610647 0.6515303366539189
C 2.6896236294674596 0.39542523761437626 0.7537433754354542
O 3.146634433444522 0.4570980867440291 1.8947339229176088
C 3.456517864176554 0.5663236505062268 -0.4734180956860741
C 3.0249982621843574 0.7119445250692876 -1.7811422712447023
C 4.104610233987025 0.8562940931697326 -2.701996363173412
C 5.326499125183129 0.8246266913969872 -2.071043452456086
S 5.169794549729356 0.6254133191917282 -0.38180277178845434
C 0.6738395635220612 -0.9900262692484219 0.16250638892483477
Cl 1.6353686430089722 -2.3345248099686273 -0.33478637724422916
C -0.7175116972825759 -1.1156190654497111 0.08372918161298254
H -3.209336239270586 -1.3451312330855105 2.268188358635237
H -3.2869398248461192 -2.340748268510436 0.8028435400030604
H -4.683789339030923 -1.3846234507775101 1.2905620570639587
H -3.5174440438564143 0.7202518593316587 0.8406037538039515
H -5.12568965460283 -0.2749664443129494 -2.04626441197656
H -1.6108793542821425 1.9226949533456519 1.3584817311188646
H 0.8363955343472084 2.1428536315793476 1.501112158808537
H 1.9835203787134073 0.7148589803012254 -2.0808004017507566
H 3.989184555702703 0.9773438852695691 -3.772322136985967
H 6.30721208548439 0.9104275319821673 -2.5187405120246917
H -1.1445673761122421 -2.033879949942258 -0.3166041429437308
*
