!RHF def2-SVP TightSCF PAL16 
*xyz 0 1
C 5.201255687964561 -0.4765579216152813 -0.4595212240594656
N 3.977866904424134 0.3067641211535965 -0.6799529995709184
C 3.929670739846123 0.7621279186230433 -2.0729870935572348
C 2.7992774726919416 -0.5129994709467516 -0.3385960579763352
C 1.4770209710336575 0.2756466726528764 -0.2353847585060692
O 0.4523303872261897 -0.6449780177793835 0.15280815943293138
C -0.705948964980019 -0.0989650313912388 0.8336182112107745
C -0.26693431097781156 0.23580507412058757 2.285564923100358
C -1.7569736265470448 -1.2349114464502782 0.9540594634609039
C -1.4837309674291008 -2.54663361610574 0.5203482908415284
C -2.4361945407373815 -3.560922897755301 0.646742969551257
C -3.6791920631322457 -3.284673769097775 1.214431748309737
C -3.974521159207964 -1.9944167402039963 1.6487436880383133
C -3.0236713923477483 -0.9788267439582893 1.5228436211053251
C -1.2909765919897442 1.080808288093685 0.028741452404643195
C -1.411225775511353 2.382064223141053 0.5534501287517224
C -1.95598769782034 3.4206359616645083 -0.21557674817385725
C -2.3888610443618696 3.1719618413393253 -1.5184802226435086
Cl -3.05984693797749 4.448860588357111 -2.462504797921379
C -2.2795736841988727 1.8945795480109833 -2.0616027152885685
C -1.7331049936571046 0.8591330295359171 -1.2950560170804755
H 5.289392793728935 -0.7487074820283689 0.602209876120518
H 6.0914963322420475 0.11625315161032569 -0.7031062849543949
H 5.223472631606601 -1.3953767211888215 -1.061782950100547
H 3.084249570408533 1.4423464317707966 -2.238367503290392
H 4.832330024109712 1.3327869628737896 -2.3262263192751407
H 3.8500806871009905 -0.07025330906760005 -2.785154358796731
H 2.680538926291141 -1.3499572248862675 -1.0444126297573413
H 2.9574141972016363 -0.9734288328486617 0.6499104201825677
H 1.2029996948803592 0.6979481206524121 -1.211582207090235
H 1.5918283116053131 1.0932236069145707 0.4878002696076231
H 0.18846654305957047 -0.6448080478600026 2.764560456220158
H 0.4909854040884755 1.0256615762543122 2.3197318029542586
H -1.1021892025486304 0.5663284801118227 2.917287023428776
H -0.5226070777046418 -2.792813054492291 0.06964239252514332
H -2.202904526674252 -4.565936985157156 0.3042195211137961
H -4.419193724356203 -4.075405123952811 1.3120914086753
H -4.9452527081166195 -1.7766079225547806 2.09015788333298
H -3.2837087466502717 0.02110826940055334 1.8673922366870148
H -1.086454543207347 2.616006635752479 1.566509879674326
H -2.0402689520394564 4.420801893459845 0.20964630338250945
H -2.6173285577489103 1.6933341337397025 -3.077079987678608
H -1.6540254895969788 -0.13700616989602193 -1.7351372543921186
*
