!RHF def2-SVP TightSCF PAL16 
*xyz 0 1
C -2.635697815138047 1.0367292114669517 -1.2063446484677487
C -2.229599585289765 -0.42865319201971464 -1.1476589282333771
C -1.2354702215612134 -0.8297203986116338 -0.03516421973974376
C -1.7932633777529525 -0.49645053359487745 1.335374951228864
O -1.3864686124311008 0.3344310163910294 2.1280164176156715
O -2.8619044076918487 -1.2579517599795524 1.6500950033440207
C 0.2433569307766298 -0.38340246586431054 -0.2320929417520007
O 0.6515535052413789 -0.850950632858605 -1.5385205252567393
C 1.177781026699076 -1.070006480843774 0.7901590327617406
C 2.6620772808366273 -0.7927932103843562 0.524102503523709
C 2.934733044228203 0.6067556896956052 -0.0233937119497688
C 1.8242438525509548 1.5814364263595884 0.3339991590301697
C 0.4680650275846322 1.1462538972576584 -0.23689117223231587
H -3.464945428655745 1.1602535073588125 -1.9114612145972536
H -1.8220040478683426 1.6709254671968723 -1.5624332981647922
H -2.972395394405589 1.40658228659936 -0.23377767509528685
H -1.8360015632060935 -0.7272756802593062 -2.1262762420662122
H -3.1493654042626438 -1.012661288468735 -1.0088195761159078
H -1.2050436257596395 -1.9306556472606602 -0.0704669230250498
H -3.1271007603276124 -0.9424473474839242 2.5399143205908494
H 0.6544739797512193 -1.8236539896288215 -1.5287384912436328
H 0.9381481919468494 -0.7364355477689829 1.8065820115315696
H 1.0312381424005654 -2.157443291628537 0.7758002233659657
H 3.0609850461810573 -1.5329482369507021 -0.18038058782674607
H 3.2162266756961024 -0.9381429266417252 1.4595589838746392
H 3.8958176170319487 0.9699912982471701 0.3581030626375053
H 3.034745706730213 0.5589705566060936 -1.114943834050311
H 2.0696694012459536 2.5837910532979684 -0.03548929505198696
H 1.7502566320806203 1.6623899503101132 1.4259331350524826
H -0.30312927014953395 1.6736074191536432 0.33256475473347563
H 0.4090174535173059 1.5194748503078968 -1.2673502744210985
*
