!RHF def2-SVP TightSCF PAL16 
*xyz 0 1
C 4.244670442572922 0.7275284093481772 1.0772996991692307
C 3.529128555173742 -0.3915891859266376 0.8638984119572896
N 2.3689475301700242 -0.16715766329613307 0.17138754154406088
C 1.1911347778279984 -0.9423094327189244 -0.07367386837644828
C 0.3042874065119883 0.11666300086658576 -0.8146594884302194
C -1.133408918163164 0.06884453352049785 -0.34447801139115597
C -2.013184238201629 -0.8805367828227381 -0.8886831237561008
C -3.3339447557550903 -0.9641155930161455 -0.4435143792042278
C -3.7904733050613815 -0.10338823243673419 0.5521496536808028
C -2.9278972511347336 0.8420450350106979 1.102308589853824
C -1.6069218723263696 0.9267493936488682 0.65853065214456
N 0.9624881220085466 1.4755909346323273 -0.633530907811153
C 2.0961643795795046 1.1397511608692938 -0.1021282743721691
S 3.4231034492003154 2.1522302477575406 0.4198528700616438
H 5.188697427553452 0.79341108361065 1.5989115486583632
H 3.7792410624239476 -1.3940289968196966 1.1825347107016977
H 0.7411124142070563 -1.2791308732106272 0.8670433876457044
H 1.3880896943086733 -1.8101106807250997 -0.711267609096568
H 0.3270558351146166 -0.08406339100630644 -1.8948804872871128
H -1.6780437512921134 -1.558615946659885 -1.6704606594826892
H -4.008563582524172 -1.6980737351649788 -0.8765937761160124
H -4.81951490364653 -0.16489334368985056 0.8960180345378249
H -3.2829083453888552 1.5192805306291035 1.8747559644348601
H -0.9492601731592076 1.6759195276000047 1.0957750443160712
*
