!RHF def2-SVP TightSCF PAL16 
*xyz 0 1
C -5.164523460914153 -0.615319830401269 1.4763749931435135
N -4.093084161498386 -0.10171523100353021 0.5103889500642927
C -4.005649307656909 1.413727712379763 0.656557617921327
C -4.509919674944814 -0.46251722535274653 -0.9078364548925306
C -2.758979271970462 -0.7748019741364529 0.8926815835189056
C -1.5669912222963203 -0.4063379445463428 0.0002964183988575391
O -0.3994553430287957 -1.0125808284028406 0.5604408153278062
C 0.8200832483288124 -0.5951439703535053 -0.09316589594664526
C 1.9152257604277991 -1.6245062059327613 0.2516787211435217
C 3.120848532751362 -1.5348141157411561 -0.6527348804566833
C 4.216168242010287 -0.734380601507991 -0.3014925697636827
C 5.318938834884554 -0.6330661769767828 -1.1503840483019505
C 5.338255108842532 -1.3303528878609976 -2.356411331078417
C 4.254879645124029 -2.1296927399812224 -2.7153972102931605
C 3.149699871862447 -2.2312054856538692 -1.8690734161842282
C 1.1812755902025465 0.80857759876388 0.3630891865612937
C 1.158283842787448 1.1592874041455548 1.7229638739653441
C 1.4931186880339884 2.4515774546441254 2.128949026112871
C 1.8576679448735056 3.4067616019625495 1.1826213647250057
C 1.8925034611292035 3.0703974799110325 -0.16910753843139018
C 1.5576704389639706 1.7786667348505454 -0.5781059306014071
H -6.118221693109871 -0.1440822440485539 1.2202659469657413
H -4.868382656717145 -0.348083158151627 2.4951481875121906
H -5.235631675628276 -1.701708523712882 1.36815977058413
H -3.32431038529506 1.8054530032652871 -0.1024926551542257
H -5.0051463751826235 1.8325012128478266 0.504320350736689
H -3.643033651781768 1.6449133287689754 1.6621922933847617
H -5.508191397126672 -0.05288195966034142 -1.089621347156162
H -3.796171752149016 -0.022154849725431885 -1.6088316114908845
H -4.520594644408295 -1.5524256506659062 -0.999023303613243
H -2.9217242733900863 -1.859643439180015 0.866879217526327
H -2.547771493674596 -0.5035456068429962 1.9348295826858792
H -1.7076984793123415 -0.7904090847903469 -1.0150498618555457
H -1.440969836623329 0.6783357674636193 -0.04129598141998559
H 0.6413773773801359 -0.609247522715381 -1.176920664735352
H 2.2254487421229667 -1.5373457318229429 1.3013831113830212
H 1.4956824193312235 -2.637182246755345 0.17466606852370906
H 4.218374133812447 -0.17950021157369003 0.6347974360187505
H 6.165241764460531 -0.011145975318535692 -0.8691319221349486
H 6.2006490699216394 -1.2543165284404247 -3.0140427800115277
H 4.2754353497410955 -2.6783042737415133 -3.653776080940013
H 2.3169589708498215 -2.8650974559346785 -2.164121197463431
H 0.8906468257157345 0.419997408644812 2.475244054248105
H 1.4854095408154364 2.7110570536465928 3.184918788966706
H 2.1323018707334604 4.410176871368553 1.4997374346453056
H 2.197831906089481 3.811600286239102 -0.9042600419650313
H 1.6164735755135171 1.5304787620300084 -1.6363080701728914
*
