!RHF def2-SVP TightSCF PAL16 
*xyz 0 1
C -1.8666488650020372 3.6929686469639336 0.034430918401327185
C -1.9043104870238454 2.4119423227729837 0.4242968576407142
C -1.9745602310587906 1.23675125724293 -0.5105921998332453
C -0.7654959040190343 0.33030754370994575 -0.38160097988903185
C 0.39023312672845845 0.6370715362656172 -1.1472478328230375
C 1.5422790936197655 -0.14546973811498606 -1.0646856445938644
O 2.7030775137497445 0.0529962263923367 -1.7535360387162444
C 2.7587345711768414 1.1806079899978181 -2.6163853754205637
C 1.5060202855172828 -1.2273540533106702 -0.20131741370592568
C 0.3945721010467468 -1.5363366489300165 0.5610677418725208
C -0.7624169381913724 -0.772731753549845 0.5004273428671676
O -1.915723322183237 -0.9673492865628388 1.2075819011420592
C -1.9597696832159044 -2.0453392880922348 2.1316329792071853
O 0.6155185989790528 -2.6423348198867798 1.3301175606548123
C 1.9643028631833956 -2.986719341047836 0.971838921941282
O 2.5377968501779242 -2.0991030292509536 0.004077017136609924
H -1.8803080897280469 3.972797171509071 -1.0139942347780577
H -1.821380088195441 4.492739044310751 0.7674258076467927
H -1.8954726065578604 2.1816093528866984 1.488230229548102
H -2.8983404432596043 0.6782224374319912 -0.3189596325364858
H -2.057948880695457 1.5718427813995717 -1.5529965246915927
H 0.35184775163799015 1.5053446134908461 -1.7988963924689327
H 3.7513397390564833 1.2012415134737533 -3.0765426364601387
H 2.6318567825071475 2.113370315263442 -2.056882071345684
H 2.0206456899238026 1.0984493431240723 -3.4210780604313107
H -1.2133069258077769 -1.9219540066306149 2.922655584219416
H -1.8602849411070634 -3.008735339271517 1.621806651505813
H -2.9446600330925747 -2.030510036893787 2.6090178479536563
H 1.969909331719699 -4.0044129620677635 0.5649211782497263
H 2.58249314010839 -2.969911792621098 1.876754976892578
*
