!RHF def2-SVP TightSCF PAL16 
*xyz 0 1
C -1.7756903247997846 -0.15469549632785554 1.709039991375247
C -1.2361961912144197 1.2276340527874872 1.3213240200518204
C -0.7546778379064752 1.9202647620568054 2.6131871039494756
C -2.3542925133437347 2.073419435719015 0.7004309998519993
C -0.04025162435561246 1.1539503513585676 0.3384078546826884
O 0.8518916947670004 2.010909617091898 0.39006370057311246
C 0.0036976006154522166 0.030863578554836065 -0.7202917191086591
O 1.297366262355449 -0.1142402964145033 -1.3228589304701093
C 2.049476625727757 -1.043576376819389 -0.6601556036631898
C 1.992582387855583 -2.3789659496762168 -1.0577742787779223
C 2.7747140552137246 -3.326734199249609 -0.39598391658008997
C 3.6167907993904485 -2.926750987898425 0.6426089492966556
Cl 4.578395960067414 -4.096337283521164 1.4590781644039374
C 3.6909536254095405 -1.5851217497754815 1.0185810527907437
C 2.9098954966051895 -0.6361601228822142 0.35737118074979474
N -0.9274668659399273 0.3089780587390602 -1.808897078772495
C -0.9331076732509256 1.4044715167293038 -2.6306946837388763
C -1.9997464219468557 1.2093804293042747 -3.475694984447774
N -2.6301403978062132 0.024452100348186248 -3.1948785887029953
C -1.9492741176859807 -0.5070372983264855 -2.205778480136539
H -0.9718606270279568 -0.806249387902409 2.070108469507227
H -2.5269853040332158 -0.07875814060870705 2.5036194989128546
H -2.2582280428827364 -0.6562120680858794 0.8641256037795818
H -1.5546921676172956 1.9738400268891765 3.360349465084065
H 0.08720023275406719 1.3780894033367568 3.0595108226752266
H -0.41897068463798637 2.945689938012297 2.4193625553956135
H -2.8217687720684026 1.5672478293219916 -0.1491152214476966
H -3.1460810869463427 2.2799537907393628 1.4294724518958761
H -1.971173600702834 3.034447560636933 0.33881836834872564
H -0.30840975716421515 -0.9156553779424442 -0.26457870041503145
H 1.3549735117068065 -2.682156032125274 -1.8840171421896
H 2.733412880235143 -4.369465258281619 -0.7000732834880609
H 4.361292086167122 -1.2714046410830069 1.81463901117156
H 2.9849625931809483 0.41429922113716994 0.6298447895385693
H -0.20303540342336818 2.1996120901229266 -2.5504804454109093
H -2.344412600000602 1.8561155907067473 -4.2725574215598545
H -2.1611437972965124 -1.4640986866716728 -1.7461135751250783
*
