!RHF def2-SVP TightSCF PAL16 
*xyz 0 1
O 0.668211190683636 -1.6123107483816306 2.343600041223047
C 0.7156576475518504 -1.4394266325283076 0.9265401535961166
C 2.053210604426099 -0.8616961241421105 0.5030152787002322
C 2.8269777786663375 -0.0745771780412821 1.3727102763505314
C 4.04368469479399 0.4692149243708649 0.9530642612684975
C 4.495585263399133 0.23509735455636668 -0.3428639688574051
Cl 5.992137862091691 0.9069046718782056 -0.8617813322602295
C 3.7415139423641963 -0.5369300669638578 -1.2233689372228647
C 2.524975803820783 -1.0812511060968486 -0.8033385029029968
C -0.4562849868494231 -0.5910841845559702 0.5581748770830773
C -0.6165735909659975 0.7094674773123122 0.11815683409949972
C -2.0107544108933912 0.9212806000964497 -0.04040485431000491
C -2.8252212730674744 1.9920664851825862 -0.44836577590376603
C -4.215548434308373 1.8083966079975127 -0.47287644716376387
C -4.788113849374056 0.5891012591652073 -0.10011430460962246
C -3.9943321840491928 -0.48737715397986525 0.30973370034395015
C -2.6181240048098724 -0.2739384820619505 0.32310622341639117
O -1.6803084027314503 -1.1898093003053687 0.6899809383036913
H -0.25048013082043874 -1.865598075311165 2.5443989133612748
H 0.6064759650154766 -2.4370183495189823 0.4839573194275943
H 2.4828158599010632 0.11520774769056137 2.3884028868226173
H 4.629881143156726 1.0709680329386393 1.6422352588186035
H 4.092899981818903 -0.7179935350197814 -2.2356412762773314
H 1.9436312573600902 -1.678127628284667 -1.5039518154448877
H 0.17732522920541355 1.420706811303757 -0.06411827024400232
H -2.390808248228922 2.9438226361778743 -0.7389891447513313
H -4.857144533007705 2.6293712281556783 -0.7866948549064109
H -5.869780244187242 0.4739794676315595 -0.12803209242017793
H -4.421509930960697 -1.438446739264981 0.6024071514765919
*
