!RHF def2-SVP TightSCF PAL16 
*xyz 0 1
C 2.9332004975649824 2.213823677386911 0.5424988639052866
C 3.8113197983799325 0.9840198623579057 0.2587074988425771
C 4.143822065429884 0.9100183722386742 -1.2405282504648079
C 5.128099791948383 1.139776246839121 1.0444226021058538
N 3.1876715433777165 -0.2618892958001874 0.7487263752691136
C 1.8980740161642629 -0.6188989604706928 0.1265625227906773
C 1.3423627105541867 -1.8789909793706356 0.8242870457160435
O 1.2528268405273324 -1.626844378908213 2.234817700571812
C -0.027004381612745338 -2.3086999738349334 0.2778035208849209
O -0.9109166978958315 -1.1855508517680176 0.2317653940764587
C -2.1646141558131426 -1.3746319703412193 -0.2829435433812934
C -2.67875927383147 -2.6057879360651093 -0.701545941620925
C -3.9615886574590187 -2.688657362004675 -1.2501126829541709
C -4.743815120782622 -1.5438413057905818 -1.3797821896566256
C -4.246778844094457 -0.31911064252316207 -0.9401075746042733
C -2.961551488523309 -0.22131808360520805 -0.3884853642926173
C -2.4340991903945293 1.1462133794075446 -0.03420344639463892
C -3.549395194700157 2.0806509713880037 0.40388433690784625
C -4.7217687879330965 2.0469020998699032 -0.5453798718563888
O -5.426095303179713 3.031037933221879 -0.7595870117967657
N -5.035372247655192 0.8272019125976638 -1.0809870909061992
H 2.0249655639117274 2.2220851828618726 -0.06928877646154387
H 3.475247303703196 3.1407326394725112 0.32077710033799217
H 2.6326436164630564 2.2537519410004165 1.5959255279082831
H 4.7226256144482015 1.7859269075540742 -1.5562733112887286
H 3.2404499623762897 0.881663160353448 -1.8590878161029158
H 4.740833385019563 0.020717341241067947 -1.4734149650852206
H 5.658815358939666 2.0527312912647537 0.7499425829676536
H 4.944934530137557 1.1995642917132672 2.124021023188787
H 5.805277357006824 0.2957470263264304 0.8664479780755251
H 3.8426868194698645 -1.0346518575053774 0.6141851460940349
H 2.0122176993084664 -0.8167253253486495 -0.9437703347053835
H 1.1905049599091437 0.20349648105297014 0.2660692480832529
H 2.0431665029887527 -2.71374053715976 0.703171820199858
H 1.9770987578127661 -0.9932531292244723 2.419260147510396
H 0.10963938051526405 -2.7071276498848866 -0.7347081228619317
H -0.4488343488402958 -3.077335982138296 0.9361503304019154
H -2.1046749368722866 -3.522906857153269 -0.6196185705355677
H -4.349021245577339 -3.6501771886581014 -1.5781268277548046
H -5.737595525078665 -1.622189787198194 -1.8112551971158957
H -1.9280588371654261 1.5545370448744624 -0.9179321534491206
H -1.6975164288331626 1.0891365775148572 0.7749894215707915
H -3.168577234241667 3.1058514488048488 0.46414853969817516
H -3.922230116449405 1.7982046181186517 1.395928373264552
H -5.900216059019917 0.7885396472920113 -1.6043819268350437
*
