!RHF def2-SVP TightSCF PAL16 
*xyz 0 1
C 4.054129893212983 -0.3928546682132665 1.2301912806274786
N 3.1703691227310147 -0.7046969991988037 0.11021817325082599
C 2.339543904135678 -1.8836792413977332 0.4175507468452174
C 1.0552531702209358 -1.9736818783118726 -0.43432430675154204
N 0.15849124193953812 -0.8146874208219029 -0.20763183720863734
C -1.2133924155699911 -0.9897570785210822 -0.37583993949285216
C -1.6893119898753166 -2.004635148678529 -1.2388537000273823
C -3.04936119527273 -2.2600940903184608 -1.4458368896364007
C -3.9996635885525653 -1.4955172355687334 -0.7946253171387632
C -3.581703577094034 -0.4735894167505082 0.048114702281933444
C -2.20710071853339 -0.2061790129315538 0.25905380864290045
C -1.8773582141701242 0.939232774178383 1.1817165736781567
N -1.1203108202198202 1.9481603163979258 0.4612670530996324
C -1.551364826365454 3.201004807697144 0.1217588666141935
C -0.5619855376882803 3.792712505522864 -0.6305102250248044
C 0.5015839704037778 2.8630828120781233 -0.7367260570309446
C 0.1429436104665588 1.7271774856459705 -0.031978036058924124
C 0.8392628971142894 0.4237759634121829 0.2678520542191512
C 2.3199923717059345 0.45420400586505033 -0.2589551852117804
H 3.498311343959393 -0.09572022410029973 2.1267848100589037
H 4.738500466932556 0.4201525553338989 0.9637165642739044
H 4.678136313290766 -1.2580879204505546 1.4804092564482674
H 2.041109780640882 -1.8812364968399404 1.4752081018152081
H 2.9396414237754884 -2.7866040089400985 0.2549757149757845
H 0.5593022323112602 -2.910797392983376 -0.15151554756381777
H 1.3167586089845087 -2.031820827871238 -1.4982417129966579
H -0.9914726839783428 -2.6146818733799586 -1.8069906594699994
H -3.3539951171269604 -3.050960553980812 -2.125583623947572
H -5.058065385868326 -1.681807759616328 -0.9513346863334994
H -4.340121552407077 0.13207887192748488 0.5406927112557518
H -1.2896243135488012 0.6015668920702802 2.042097961060638
H -2.7780121431629876 1.4224479681248408 1.5778789036519374
H -2.526700176097079 3.5632242836864143 0.41816437090635683
H -0.6048071860190128 4.782775925927203 -1.0652210507182478
H 1.4306019410782667 3.018594370847238 -1.269897234335594
H 0.9073698391877606 0.35204775115964587 1.3635001633828392
H 2.8124920946801257 1.3889341001599944 0.04036683888564962
H 2.2905572147533784 0.4799158588502338 -1.3574526470235166
*
