!RHF def2-SVP TightSCF PAL16 
*xyz 0 1
C 5.479397294431214 0.5172564990437478 -1.2923958622331098
N 4.800425187092628 0.42495350172011476 0.0012707966618238937
C 5.530530240283959 1.2129264359679768 0.9946313516974754
C 3.4045015652099675 0.885757286691927 -0.07871353944517046
C 2.48594239442595 -0.027457486794022868 -0.9062932173251195
O 1.137300984885864 0.44774608198134896 -0.757181081791844
C 0.16517970076765584 -0.4492883413009656 -1.086739507471354
O 0.38024763844237913 -1.5480357084442307 -1.585312296916051
C -1.2270363900701597 0.11606487202200835 -0.7938519179526193
C -1.3208970927055963 0.701902869106949 0.6162361060152287
C -0.8661478732704968 -0.003981028085028529 1.740118990642187
C -0.9748481086325498 0.5432653017363147 3.0200086001523867
C -1.5280153093393953 1.8079104512629343 3.1939548407022436
C -1.9680910527457305 2.530215946459808 2.088303203902462
C -1.8631946229241039 1.9838418233645667 0.8075553474982526
C -2.342583322193666 -0.915111755414101 -1.1614478443737806
O -2.190698453727213 -1.2687306151121924 -2.557496896912583
C -2.381895524515411 -2.2207464383742934 -0.3481988286676554
C -3.787984994679367 -2.7530485831999045 -0.6002534926000567
C -4.65020710020301 -1.5053977423851117 -0.5129415557656581
C -3.7857816726449682 -0.360229759956618 -1.0457100920499793
H 5.013348947390902 -0.13958406941385312 -2.03157188240015
H 5.483415525843314 1.5394380909327006 -1.6860763893567436
H 6.517269171121787 0.18238906334739052 -1.2079538807403767
H 6.5556814412698925 0.8451057084654937 1.0971892982021012
H 5.0645506584094235 1.1211898886300027 1.979302355324086
H 5.572554912247955 2.273464206992709 0.7280746018947266
H 3.346854294619718 1.9097792487078595 -0.4688305327238906
H 2.982066794820746 0.9330262217076605 0.9335187831970247
H 2.7460171798238697 0.013096321861097476 -1.9680657433644435
H 2.5678747511498954 -1.0618399533653566 -0.5449273822676649
H -1.32134076473804 0.9423915343697571 -1.5180534326167296
H -0.41732444527881757 -0.9914973706449589 1.636672794296339
H -0.6252161794206584 -0.016840295746712558 3.878431702541585
H -1.6137381971791125 2.2298525670738547 4.190093403024117
H -2.3987738827197638 3.521987114313571 2.223050436003056
H -2.2164538729351375 2.563066417548217 -0.03964918801561604
H -1.3750443856333134 -1.8076535091420682 -2.6301002807411926
H -2.2702261404114874 -2.051061553580266 0.7254173502868826
H -1.633927356502093 -2.954946599935859 -0.66352101230918
H -4.073455507563792 -3.50755577885039 0.1357921665930405
H -3.8618233282808347 -3.202087307097424 -1.5970581579396872
H -4.902580478659325 -1.3074319358952302 0.5322397927839915
H -5.592000016286378 -1.6078866498231594 -1.0608497143487507
H -4.168815297493275 -0.029154801833759368 -2.018834288463716
H -3.875057311482752 0.48293983108703387 -0.35983390262521164
*
