!RHF def2-SVP TightSCF PAL16 
*xyz 0 1
C 2.6041993704604494 -1.5403934566259518 -1.0080904032897777
N 3.0652846160028298 -1.2481537419367712 0.4140074249143719
C 4.502456071296759 -1.7070082545343923 0.5822730299883512
C 2.139631930123052 -1.9551437552560642 1.4221425480389764
C 1.8044082770827903 -0.8976748906873856 2.4576405644940666
C 1.7066154337064088 0.37913484820648347 1.6397896153389844
O 0.5244740869278827 0.3869410577165147 0.8189291019949643
C -0.6514993294187256 0.6507602072638209 1.4703818905344326
O -0.6957042415432187 0.9589136505888147 2.6579689228298564
C -1.8974088887686145 0.5225933789268788 0.5419802711121262
O -2.9440439949177772 0.01639673528033134 1.400434547779582
C -2.3945220499229958 1.8792970069988089 0.022594033251988388
C -3.6815442132229412 1.9665359831411624 -0.5478196727581578
C -4.170804085717371 3.1743310303213517 -1.0468343439514105
C -3.383933494287876 4.319837145320065 -0.9878385658733353
C -2.1089422089056873 4.25775571019315 -0.4316383694041295
C -1.6148357121868397 3.0487741920197213 0.0675587651938434
C -1.6544937912651163 -0.5231975588304109 -0.5623450631391536
C -1.2190704608837142 -0.15669495965518507 -1.8507941499688618
C -0.976048842583054 -1.1236882658523946 -2.830418659638573
C -1.1489627314263076 -2.4741055395971188 -2.5384243195012695
C -1.5675903771536968 -2.8606262811023653 -1.2683586434029646
C -1.8158129759743562 -1.895540656052736 -0.28940913808697794
C 2.930462681400659 0.26717683938509224 0.7292453254022024
H 1.5894768508576074 -1.1586586678944117 -1.1314340823693578
H 3.286052173722785 -1.0376867779442427 -1.7000956650706
H 2.6306111736400952 -2.6229622352665487 -1.1612954488064005
H 5.129778553969916 -1.128518937147884 -0.10178173752325616
H 4.80302529091678 -1.534266712193092 1.6199076229296612
H 4.5541876172665665 -2.7731549903296093 0.3435142660360585
H 2.653076781236766 -2.8248409441230624 1.844046666395172
H 1.2412766567796678 -2.287007718674906 0.8899214503179321
H 2.6133150714890636 -0.8194804201071172 3.193555936123315
H 0.8819468069621996 -1.1565565949438297 2.984732195313097
H 1.752207637735135 1.2918247343947025 2.2434796872207223
H -3.1443406450285116 0.7295196385877325 2.0357117482107507
H -4.314857031562251 1.0806926278657143 -0.6069396938622259
H -5.167518890655555 3.220018155698383 -1.480076573729949
H -3.7667764497000347 5.26222260817347 -1.3722432395637771
H -1.5002605489118281 5.158005101619815 -0.38328626685811196
H -0.6148502189267783 3.0551534384031322 0.49242745462508836
H -1.086828534747703 0.890134032376039 -2.1195491890557063
H -0.6765362517314819 -0.8188744153128853 -3.8307972683737046
H -0.9876196484258954 -3.223986849699626 -3.309797816444159
H -1.7334394046420043 -3.9128847326420613 -1.0465693227929087
H -2.169943316979166 -2.2227150149477795 0.6880436975458349
H 3.839204876389408 0.5731907980795965 1.2586812536501475
H 2.8364963815241073 0.8146134507986661 -0.21313038577655818
*
