!RHF def2-SVP TightSCF PAL16 
*xyz 0 1
C 6.511324410915932 -1.9267004801762218 1.2742316128398743
C 5.260719519275526 -1.979289409983321 0.4224662583688506
O 4.989875394776358 -3.005709710355988 -0.19942755889232114
C 4.439852327324753 -0.7813898328996361 0.4027953038984516
C 4.565140735698542 0.4507109649909836 1.0211187855529913
C 3.4415723960562508 1.2323866225892315 0.6290980504813601
C 2.980974035791474 2.532042203713761 0.9033109787748981
C 1.7875827488487894 2.96144656376536 0.30357499738632854
C 1.060995013232069 2.123074947514424 -0.5524566261797231
C 1.4926506998529294 0.8188313999001804 -0.8335959920865748
O 0.866931146395194 -0.06382360340301557 -1.6668158633159171
C -0.563226830478504 0.00455502414259136 -1.7582143720601637
C -1.228125938907711 -0.5520799350983568 -0.4854362129762353
O -0.8456271340611066 -1.9258527275951849 -0.3232583999456838
C -2.7665599632603217 -0.42296631863584133 -0.5873031009539693
N -3.4495539421504526 -0.8605287067118959 0.6379810219618667
C -4.864871048900141 -0.49261136286017027 0.7563192232291108
C -5.702314659103299 -0.8919977286763369 -0.46152246282170767
C -5.046969079115573 0.9922169500362068 1.0854626949681996
C 2.6927787844072477 0.42735622310729926 -0.22073862094238622
O 3.2947215031786783 -0.7921096664118628 -0.3502151728083637
H 7.04857280767998 -2.8825625173758858 1.2076604788674152
H 7.176808549725887 -1.1314634503943422 0.917371798844945
H 6.241375340322335 -1.7639925598506458 2.3251354758131093
H 5.367217834844129 0.7561188116213671 1.680403084221536
H 3.5372570533955487 3.1947091170917123 1.5605198298674763
H 1.4244527045465452 3.970050766459467 0.49869506432369015
H 0.1600563956096156 2.5281291373126225 -1.0067088974871337
H -0.9077890018696813 1.0137724357942415 -2.0124088211531634
H -0.8297142787595106 -0.6343831191184144 -2.6085478090334875
H -0.871226666642513 -0.016533095466642087 0.4020654515069705
H 0.12678034617710815 -1.958058598049398 -0.41739467875757985
H -3.007877874699542 0.6244193008144381 -0.8044628285211309
H -3.1132307560539507 -1.0404236841706822 -1.4245915405331766
H -2.92850665299773 -0.5807941950424673 1.4666226034983485
H -5.255882735670976 -1.0594460996124355 1.6122237074010886
H -5.574261392889184 -1.9574989183226834 -0.6898271317318705
H -6.76872853619353 -0.7215848339354811 -0.2645812087521473
H -5.436114578477912 -0.31261844292055974 -1.354687508668825
H -4.7348346519628155 1.6405277467670787 0.255007547066987
H -4.4683241191115295 1.2731089945588092 1.975065269125351
H -6.103899906744887 1.2109617869003022 1.2946590901253139
*
