!RHF def2-SVP TightSCF PAL16 
*xyz 0 1
C 1.5685193739102472 2.8098590350207124 0.6718913801981129
C 1.3186642886694753 1.671036384980215 0.3809773668939875
C 1.0197585624273484 0.2702182793026259 0.019594784226587683
O 0.9498668832085777 0.14317591389723971 -1.4102427847799264
C 2.1102614906696986 -0.17932456490756013 -2.011894328390989
N 1.924865317647379 -0.26427617214782695 -3.3483779087134886
O 3.187131331682138 -0.37742195818443647 -1.4744964426620104
C -0.322065278237474 -0.16612864306448305 0.5902417811889773
C -1.5316027483307677 0.32176965770683635 0.06545488676452405
C -2.7557589037870076 -0.07808095517800245 0.6042020408283983
C -2.788643528261589 -0.9672505032561675 1.6761178798448237
C -1.598829950915704 -1.4557796906472067 2.211982014282569
C -0.3728726715629455 -1.0571314556949645 1.6750269692857427
H 1.7913708395745251 3.819168784057709 0.9304512328012144
H 1.7946586594769205 -0.3923816682447468 0.4260083781029062
H 2.7128492836773295 -0.4809101161556387 -3.939487726763685
H 1.018491551646118 -0.0724886792370734 -3.74537391448732
H -1.5211746660999068 1.0207674072789508 -0.7686145629989605
H -3.683147020101987 0.30673407133545033 0.1882129228221171
H -3.741838997963232 -1.2774789658836907 2.0960188395417916
H -1.6248906567235695 -2.146767301963404 3.050727218675383
H 0.5443868393939599 -1.4473088590066212 2.111579973342779
*
