!RHF def2-SVP TightSCF PAL16 
*xyz 0 1
N 4.559111225432729 -0.24487853814541757 -0.6295841786354326
C 3.1889058729288067 -0.01583495820751819 -0.4716371439284795
C 2.615957690871564 1.1706014530083595 -0.9458736222810116
C 1.2313251159964058 1.366956264009886 -0.9098733378785365
C 0.40628093862108133 0.3603494962175242 -0.42088140930341233
C 0.963696679287708 -0.8496498176536571 -0.015300071141382038
C 2.3466984501448684 -1.0488536323956354 -0.05517875201379348
C 0.05342075101814831 -1.9294454462222872 0.39987089147935784
O 0.44495356275331005 -3.043893934976769 0.7152352799494957
N -1.2752691688025652 -1.5975639015482408 0.40548484078114105
C -1.6519384891722542 -0.21380073880952466 0.5320694241905228
C -3.1514791927716037 -0.036669060906156105 0.2988946046420296
C -3.5665016257003535 1.419081484702153 0.458539462875784
Cl -5.331604870593002 1.5788232823184316 0.29221811884903554
O -0.9419974376611004 0.5934998543385283 -0.4160612041850644
H 5.128896746181944 0.5951925882649731 -0.6283063975207012
H 4.934590170512886 -0.9688209433147008 -0.02383310848197017
H 3.248023384350428 1.9546456094704092 -1.356149918890184
H 0.8053408431244525 2.2978205486871603 -1.2732686864241836
H 2.757255484125188 -2.014406384685333 0.22977680765784048
H -1.8538888231469541 -2.308082621403309 0.8351672835325573
H -1.391567880398179 0.11933302801098718 1.5462442732100807
H -3.7087144117874873 -0.6691542945156889 1.001520717993924
H -3.409913828450312 -0.3742229917314225 -0.713465785101445
H -3.107348433822522 2.0569021060239914 -0.30222886228426327
H -3.2942327530426425 1.802071549461927 1.446620772908203
*
