!RHF def2-SVP TightSCF PAL16 
*xyz 0 1
C 2.602498877231107 0.02590755213907571 2.0325302120021105
N 3.526436094489635 -0.1092783901526056 0.9103991428132666
C 3.800118993429432 1.190299510388338 0.3046478468447467
C 3.0837790110025316 -1.117345560141751 -0.07180166585719791
C 1.8177785601487482 -0.8343400021296474 -0.9040019693014468
O 0.647659685234575 -0.915871394765971 -0.08651454121571024
C -0.5548591772878421 -0.6322598225934276 -0.825188675387165
C -1.752364455354976 -1.3116281885217373 -0.1619827805073077
C -2.9760084776213485 -1.3809750248330486 -0.8534311361956315
C -4.092403214741655 -1.9877521086670529 -0.27280045502101435
C -3.9968005925785377 -2.5320091060427132 1.0051403090608864
Cl -5.371285644081501 -3.27883624919146 1.7217119300483783
C -2.795594148980784 -2.474417091263547 1.7071891108283634
C -1.6789216315471533 -1.8665856846078421 1.126792259869173
C -0.747641610756538 0.8750119787656986 -0.971910140494565
C -0.8226288321469843 1.697121078697903 0.15357510329364515
C -0.9886763350738981 3.0678195668788204 -0.01996326207770422
C -1.0746222803424554 3.585223704356322 -1.305994131699335
C -0.989139245568363 2.7063836194954822 -2.371899590787067
N -0.8265058268493587 1.3716372945624589 -2.237001683190455
H 3.057490685919722 0.6353286886552311 2.821723897699512
H 2.383791958999612 -0.9493690240303904 2.4811125498211744
H 1.6581571108040976 0.5007661646390428 1.7508966992191026
H 4.2777043337791865 1.8548076234135982 1.033582871565829
H 4.500728255026816 1.0893978426162603 -0.5315276901413352
H 2.894287299412606 1.6873036834652784 -0.05896490653311098
H 2.9519404139508723 -2.071573036263912 0.4546076444960786
H 3.9141701709718837 -1.2789198248399272 -0.771142776237461
H 1.7468609637707138 -1.599904652731252 -1.6861714163219683
H 1.882799698278094 0.14177088953690656 -1.3949537064201785
H -0.46013056595106466 -1.084179622991609 -1.8227746022841376
H -3.0643696873177637 -0.95361702842431 -1.851762711923112
H -5.029326512436998 -2.0298555200335353 -0.8215128520997618
H -2.7189425599835997 -2.899934798213413 2.7040941606580873
H -0.7476973658945913 -1.8316441111856743 1.6894272591495623
H -0.7506070686120527 1.2745829672815339 1.1510172817531072
H -1.0510588258369125 3.72488697723962 0.8427653189638533
H -1.2055948476765102 4.64820179508033 -1.4740043250185557
H -1.0510232058083653 3.063845304413081 -3.3959085793726955
*
