!RHF def2-SVP TightSCF PAL16 
*xyz 0 1
C 3.4102659949520167 -1.7957021353910594 0.8205569366295766
C 2.8662276068971813 -0.7936604529931296 -0.1947172080100999
C 3.92642819155786 0.19675253120637662 -0.6186963337687048
O 4.988849175655009 0.41936321274305266 -0.058829824756391404
O 3.6156705283283754 0.8602751204096972 -1.7522118863290885
C 1.654574975402562 -0.07238516604836628 0.32406800818778364
N 0.4305148653432127 -0.3250542259242658 -0.09488727058601333
C -0.4935540709420149 0.46765791798281714 0.5729344325440917
C -1.9199651015822468 0.37546265267794476 0.26588205220553546
C -2.325535321439909 -0.2323796289906894 -0.9333979797222232
C -3.6797983816352655 -0.34059628053441937 -1.264388808762328
C -4.643205554589201 0.15695442178006047 -0.3922747112803357
Br -6.475194082406711 0.012946623292687101 -0.8332869846893138
C -4.264679665652509 0.7576600043284013 0.805856840631257
C -2.908063121786075 0.8649034416493493 1.1340343014433514
C 0.06007290280125359 1.3248222172331359 1.5032924918965311
S 1.7605699212726704 1.122647663240857 1.5611647338275674
H 2.643110157177783 -2.5256383766515786 1.1016691851024842
H 3.756421120830434 -1.3051168271209497 1.737381689421545
H 4.262805706835921 -2.343274286416699 0.40351809173795555
H 2.5868759857856456 -1.3622318267753784 -1.0917520089468051
H 4.376402153418503 1.4603657670313877 -1.9019142886405056
H -1.5811277175202691 -0.626732508061158 -1.62365021635153
H -3.965223605712412 -0.8140314453670398 -2.199886834663901
H -5.01389774287234 1.1417239548822729 1.493357165464438
H -2.6464391310829294 1.3245021154104244 2.083165584810269
H -0.42210578903665835 2.050765516406271 2.140593331960422
*
