!RHF def2-SVP TightSCF PAL16 
*xyz 0 1
C -4.079489022066845 0.5360804856369301 -2.9269160232272164
C -4.0397688581440825 0.006764233209377567 -1.5017619835798315
C -5.457871206949396 -0.24124690010122896 -0.987995555361007
O -3.2883136563401396 -1.200413947692347 -1.469525014955115
C -2.6884903906312814 -1.2122955769004122 -0.17554673387918054
C -1.3183419684989715 -1.8451112937299898 -0.22541726561025469
C -0.39952031998365084 -0.7478793541662364 -0.788875329446555
C 1.1266171018837097 -1.0670293182830521 -0.6081435236188859
C 1.4817307708559337 -2.095664025402717 0.48735706405380136
C 2.9759604545860334 -2.419438997676402 0.5548669112559614
F 3.1652588600729876 -3.235347331920167 1.6327961561259312
C 3.8199189846741723 -1.177828174921912 0.6557043450443918
C 4.742121310257192 -1.0324296335841645 1.6250691634092076
C 5.541417906101362 0.20490238559374116 1.7622262198239145
O 6.409603337357931 0.3094221490759743 2.619363583975207
C 5.253895902336796 1.3108966971554514 0.824524994104766
C 4.337030927530747 1.1711394363257965 -0.14278336788624302
C 3.526765256210095 -0.09861893343727063 -0.3862660211083657
C 4.02237072553581 -0.6152821762769394 -1.7642595709062787
C 1.979429556172005 0.21332282076689996 -0.4376319631746943
F 1.7866932819730559 0.9382036345968224 -1.5950662988905688
C 1.430601645163516 1.0885753931973878 0.74366135661619
O 2.1685623477324016 0.9399080778764074 1.9585238596321395
C -0.07239145362894911 0.9082576126580509 1.05451489639015
C -0.9486466799909482 0.5841574327914169 -0.16992017616149868
C -0.9051479489887586 1.7787534305809336 -1.1504410157982488
C -2.4626075728163777 0.2532705429224165 0.17943623529073355
C -2.8408968326644826 0.5205870231852249 1.6404575147227232
O -2.7191401565386477 -0.3389077287278642 2.520150124427314
C -3.35143072938005 1.9158408343754312 1.9836110776624905
O -3.2487409608741697 2.1732567742979807 3.375957372939871
O -3.400253571020585 0.9628234163360554 -0.6499013978777644
H -4.590907586747334 -0.16187445150249474 -3.5967485415377936
H -3.0669667176681457 0.6672400235942896 -3.321662975602769
H -4.577011098005406 1.5097931160136462 -2.9761308464660257
H -5.966431252215427 -1.0053840074591056 -1.5860809285772504
H -5.448356992994963 -0.5958646041828406 0.04907737798895611
H -6.0492801664015765 0.6807304347777395 -1.0030342883856864
H -3.354187083382928 -1.7576158693361037 0.5035095036031095
H -1.2936883327179716 -2.7385910683599417 -0.8575314671247619
H -1.0404740965898627 -2.120400272025742 0.7962269089351334
H -0.5825104981030665 -0.6970236240414347 -1.8723282742401284
H 1.4094821858467026 -1.5347867789976963 -1.561438162577484
H 1.1498551329355966 -1.7512213768428775 1.4729286953202607
H 0.9593802705588347 -3.0418437823674176 0.30569865598444146
H 3.2727064819419143 -2.997514868939389 -0.32653579526827653
H 4.941404473191006 -1.7996856020537522 2.3648781393451355
H 5.816969585011132 2.2253350690939713 0.9693162382503469
H 4.153153828971896 2.0121731712819138 -0.8101034214755628
H 3.8438723980756304 0.12261098726322717 -2.55655645954271
H 3.5324922419251337 -1.5427716389086026 -2.0760380529151354
H 5.101481488501886 -0.8184442082218601 -1.7488629873625425
H 1.5766082603182905 2.1360252336146717 0.449217674523019
H 1.6473665374712085 0.4633762129342067 2.6266310399207566
H -0.42185693987419065 1.8224870108019668 1.5511235249640951
H -0.1892726457480728 0.11639345487222459 1.8052468915754252
H -1.4868754357827239 2.621343903708498 -0.7569842160127489
H -1.316038311655902 1.5107186455972839 -2.1277496653389623
H 0.0928470627563534 2.1753298335387954 -1.3298191889660234
H -2.761316957516384 2.6709201347029037 1.4582984919822728
H -4.400569560378163 1.9953117342315283 1.6879246883747667
H -3.498803311647923 1.3445641994504929 3.829757806633398
*
