!RHF def2-SVP TightSCF PAL16 
*xyz 0 1
C 0.7975073258562614 -1.7609871176741614 1.6317944867592955
C 0.8890175529373764 -0.7755432173001081 0.4683121142697266
C -0.06655523574296605 0.4299192061164416 0.6692802481270048
N -1.3836139856827032 0.37967971615530105 -0.14983606337380503
C -2.2344785265648284 1.585097015002473 0.26166802161182534
C -1.0970432541510249 0.5038391521996588 -1.648559196118175
C -2.1808244907788685 -0.8852691760698271 0.1170095454628457
O 2.264261400622027 -0.3300781800651485 0.43244159711391106
C 2.642857097112465 0.2881523259310229 -0.7096384187761481
N 3.951022543312923 0.6049159954062268 -0.6620172225805037
O 1.902235615006519 0.5398623637744776 -1.6459698621065773
H 1.0818122381022608 -1.280912170607716 2.5749445177864794
H 1.4987597207467036 -2.5894588012973174 1.481813747398784
H -0.20751100733879305 -2.176355527569386 1.7394049636627853
H 0.6832650734126386 -1.3267683501793275 -0.4549667035901067
H -0.36709821953259913 0.5054919299753072 1.7218143997000235
H 0.4178112737276483 1.37762196884785 0.40671198300447836
H -1.6638430955091124 2.4969031010544147 0.06172195097327543
H -2.4609402322589498 1.499355369517746 1.3285909757026
H -3.158074320875134 1.576087096191183 -0.32497254404621867
H -0.5292486287921431 1.422422092772116 -1.8179947758237383
H -0.5454867541106033 -0.3773979853823895 -1.9813458715707857
H -2.0556434116838123 0.553854435846283 -2.1746354899795044
H -1.6189499752881518 -1.7449725596539487 -0.2560408071391685
H -2.3483862112662135 -0.9668642920656777 1.1946480077845836
H -3.1361882533928065 -0.8114646404244941 -0.4116130422054333
H 4.5288099648182625 0.27139065028547005 0.09631699514387632
H 4.396525797313339 0.9914795992130463 -1.4829786149756785
*
