!RHF def2-SVP TightSCF PAL16 
*xyz 0 1
C 5.766730056069773 0.7584355804628302 0.7842038042718353
C 4.462367182632098 0.6436141479952989 0.05086170054919005
C 3.9799804262565277 1.7184528055107895 -0.7075999713650397
C 2.782091320294126 1.602749141687642 -1.4126151889537564
C 2.0649153312248996 0.41091218269020025 -1.3561975620661644
C 2.543066644545934 -0.6851883261419471 -0.6394767330243649
C 3.745092545704024 -0.5616633795841665 0.06804630026694183
C 1.7520484114717483 -1.9588541526411998 -0.6460650777002193
C 0.4151355313523516 -1.8176962053338506 0.042861453808612594
O 0.0700505645377523 -2.628589369426026 0.9050807597852604
C -0.5208905174593154 -0.7178769434552791 -0.34772928343458304
C -1.7636268905194377 -0.6707663411117556 0.3135802559060006
C -2.7305346708239226 0.30160238454760907 0.0009604817399595307
C -4.076346337233572 0.34639555356298257 0.7142403112492001
C -3.8998604055144392 0.4442600813141869 2.232287783771552
C -4.976262905399103 -0.8233844681238712 0.3395343336760119
O -4.767351817984116 -1.692350869978238 -0.4910572896358161
O -6.153650500327796 -0.8102699977347724 1.0014976031159262
C -2.4419944748988605 1.2283309715804647 -1.0076988243712846
C -1.2154856691585523 1.1910198455937107 -1.6720664532853575
C -0.24788119367359873 0.2366127805211251 -1.334921208460807
O 0.9054897052579276 0.30424879041185243 -2.083001252684632
H 5.76342184623982 0.13686066899376773 1.6857693966758895
H 6.589128496155957 0.4395216122998673 0.136566754424177
H 5.946439277718632 1.790662483098679 1.1026490441830583
H 4.536779974629409 2.6517411145638303 -0.7538571229511405
H 2.411888814031493 2.4373411855900637 -2.000429814771228
H 4.128279358651436 -1.407476798349654 0.6365595563726543
H 2.3144021041322604 -2.7474420105791504 -0.13060913768286375
H 1.5933333844494648 -2.3147885221372846 -1.6708896457840765
H -1.986298422006456 -1.4208236404425318 1.0726291906877619
H -4.605970106981794 1.2495856703827823 0.3817888116561363
H -3.5139573904500927 -0.4882705061025337 2.658838235732098
H -3.2100505934838193 1.2524248056603433 2.499687010322189
H -4.856815300810202 0.6494963767930955 2.724735119928981
H -6.62472936142666 -1.5956954486105073 0.6502173796794838
H -3.1699840426817616 1.9859187800101152 -1.2912887735854313
H -1.0089503745227395 1.9151169622542221 -2.4570919480462745
*
