!RHF def2-SVP TightSCF PAL16 
*xyz 0 1
C -1.4709010551448187 -1.4616678747322114 -2.8313935709384945
C -1.7221119001445593 -0.5183655757695186 -1.6359611876985682
C -2.6353791851011112 -1.2862728578270366 -0.602056689641096
O -1.9807065946228064 -2.4380463349118955 -0.06542791003927206
C -3.279489797615303 -0.421483421319502 0.47447420094379184
C -2.9873638820338178 -0.5758929494386087 1.839666139422763
C -3.604509522745876 0.22792627859518677 2.801038915186562
C -4.528542990141328 1.1948128871541939 2.414652947835641
C -4.837330939918106 1.3584457334875466 1.0672064550769707
C -4.220021467902572 0.5558009457516053 0.10535114460092515
N -0.3777653967507506 0.02107261998345058 -1.2707125092640725
C -0.1507504030785027 1.299695833614815 -1.9636936879917344
C -0.11545086343710675 0.16092598742833186 0.1625922299949222
C 1.3337990544620786 0.34723237221501335 0.55109389941731
C 2.4064620690795597 0.006457850848792785 -0.1840628959829051
C 3.800069423521243 0.20680466223407404 0.23428827895088994
C 4.2208173915390645 0.02079023098935366 1.5574626382775059
C 5.562455963150629 0.19406563035165308 1.9084753273621278
C 6.498626750809503 0.5449351468891489 0.9380239806498254
C 6.095608570408784 0.7167710351104459 -0.38442135388614324
C 4.7542624977928964 0.5427149242453416 -0.7349140945456513
H -0.9681421273025684 -0.9465040159741281 -3.65707648660332
H -0.8506208757295255 -2.317611756432753 -2.5422380705840437
H -2.4162641532202103 -1.848268942574698 -3.227927916717304
H -2.338494271731999 0.3108513006993282 -2.0101370818508664
H -3.480230702502936 -1.6982993134364675 -1.1726483196903872
H -2.628131710472939 -2.887598591848979 0.5027032361432646
H -2.2610011621275006 -1.315151342127003 2.1714823925488895
H -3.3603313797399337 0.0995041709426963 3.852577301654758
H -5.0077346158073 1.8200304560474367 3.163410918268405
H -5.560802003488417 2.110970082757843 0.7638661256758722
H -4.485037543090871 0.6988256929249896 -0.9402901446957077
H -0.8403104641889456 2.0774559658450964 -1.6145248906571126
H -0.28278205196658446 1.18868158300194 -3.045542692076722
H 0.8704895227997996 1.6676024904624336 -1.8250289018344514
H -0.4068376064541315 -0.7445863321835501 0.6986442165164044
H -0.6958465863176568 0.9951471041397107 0.5754764678755578
H 1.4749056272267667 0.7908134184968648 1.533597484820118
H 2.2655237414102847 -0.4405199944229825 -1.1662290825199328
H 3.5111025426068894 -0.2738397076752737 2.32609227222817
H 5.875534803529757 0.048076470432350964 2.938792507397568
H 7.542017306287356 0.677959887031171 1.2109331832958088
H 6.823982206319 0.9839605276326732 -1.1452829575900998
H 4.457233781835536 0.6789331442173164 -1.7723318193334532
*
