!RHF def2-SVP TightSCF PAL16 
*xyz 0 1
C -1.9049230538990478 -0.43485123595836583 -1.9910451064167916
C -2.3696414030288473 -1.056667522850406 -0.6768293905366444
N -2.5512623040232456 -0.137280719864895 0.4603173106392805
C -3.6530415540934658 0.8066377726636385 0.21925244211322856
C -4.175800747768203 1.4434916935360471 1.5031750266621953
C -1.30397678703826 0.559146730864001 0.8575607115425926
C -0.18870477334573585 -0.4340978692167487 1.2696345626302226
O -0.36892291581490366 -1.274702060889886 2.152221705938557
N 0.9914524263628731 -0.30069751152866014 0.5115994806054031
C 1.6827465852187462 0.9672298386722319 0.4904871949970712
C 1.4285734307113849 1.9105466839730185 1.5123509552863388
C 2.059691850248502 3.1574441318220834 1.5441123496837044
C 2.975601212066735 3.4910247909407617 0.5593510110004981
C 3.2680059127820265 2.5682862829410094 -0.44062336905144045
C 2.640905832948346 1.3089784287293307 -0.47310215869931943
S 3.104455397217708 0.23249302152449033 -1.7944777318896792
C 2.5812501648051636 -1.3247844265507576 -1.1262969119808395
C 3.143689747485574 -2.466305320576393 -1.7303147122538765
C 2.736145635890806 -3.7441314749560584 -1.3657871329036362
C 1.7495821406780412 -3.8882475065567106 -0.40520579599366857
C 1.186428206692951 -2.7563814146571195 0.19625661588651858
C 1.5993742921789353 -1.4465950607485083 -0.1262810346017929
H -1.833329076273844 -1.2113387416045536 -2.760166866868176
H -0.9168636466971127 0.024832629206099445 -1.8999116894786048
H -2.6082923889472975 0.3210181999737325 -2.3526959502591804
H -3.3168753004663136 -1.581461811606335 -0.8575195585511226
H -1.6710926445928043 -1.8524200966927353 -0.39644768107006784
H -4.499576437153339 0.2723958920113787 -0.23065266157473607
H -3.360223332068219 1.5924822723203063 -0.4874989791233724
H -4.434082211635553 0.6809484785182248 2.2455184582308028
H -5.081219811950385 2.0212912234839555 1.2890477504097961
H -3.4492729462219787 2.129686735320867 1.9476372756156148
H -1.4824601933518018 1.1742028261373638 1.745884358021096
H -0.9707831538044427 1.2269209642749288 0.056632808604250705
H 0.7627945951991976 1.679520416673007 2.3414367777775973
H 1.8431515492135688 3.8569249043665805 2.3482089108898077
H 3.474055715897808 4.456785182271455 0.5754515722698932
H 4.0006857970225695 2.8363130911324714 -1.2001888369297091
H 3.9002966196469058 -2.3620061279265463 -2.506036972776839
H 3.1771886677338212 -4.617627770763012 -1.8379477729082399
H 1.4105041276671757 -4.879178234278754 -0.11223564655661675
H 0.42376477450612543 -2.9498272841304494 0.9451286816200982
*
