!RHF def2-SVP TightSCF PAL16 
*xyz 0 1
C -1.0100633565534713 -0.48690718986062026 -1.7305361502547096
C -1.6948991763445218 -0.0474284125273071 -0.4253014304334065
C -2.5523838559544267 1.1968594034125606 -0.7295141841586261
C -2.6174427901519977 -1.160306250611528 0.09794570950337926
N -0.6941054103783075 0.3725501756854724 0.5781132228214291
C 0.13800221510225702 -0.7214433140986037 1.1329570905301405
C 1.5185595098591944 -0.1971973515281369 1.5962366748391608
O 1.3624370073571193 1.086256729800668 2.212000266258858
C 2.4666370205157633 -0.04422183669774484 0.46208727434987484
C 2.953305504083346 1.0182138179487732 -0.26523525823597793
C 3.8045767244949142 0.4185524063110816 -1.2027303329744494
Br 4.766623270462956 1.3811458876144709 -2.4955229277899207
N 3.854474034431003 -0.907531307896249 -1.0796408901166494
O 3.0089384266327572 -1.2004233504116986 -0.019681208834210945
H -0.4409767138844619 -1.4142746819937533 -1.6116371208292348
H -0.3212863339707665 0.283483420054146 -2.0968804711088755
H -1.7510597683670988 -0.6652679461728792 -2.51868865384187
H -3.3121810185545493 0.9770200102086084 -1.4886001740886012
H -3.0765751749986485 1.5527281159888098 0.16552739555556217
H -1.9388260247483187 2.0232842196428904 -1.107978591961602
H -3.0954553195092815 -0.8699844348592329 1.0406934078387182
H -2.0752789516031327 -2.096207556905897 0.27038837247653313
H -3.4150676795515444 -1.3773678934090683 -0.6220766500095102
H -1.1937446524671051 0.8010808710824208 1.3626087283543293
H 0.2802051363559184 -1.5512048857236551 0.4334508887112494
H -0.392094077453641 -1.1231070644817267 2.0055168750875687
H 1.9439293859721798 -0.876271052908549 2.3429488353954637
H 0.7647782203888306 1.5654956385745398 1.604606049682015
H 2.718973848835768 2.0624738337612847 -0.12888507103392127
*
