!RHF def2-SVP TightSCF PAL16 
*xyz 0 1
C -4.896187355267615 -3.1301251165025774 1.4631825291609566
O -5.2342881220457205 -1.8283471780628715 1.0041185389505807
C -4.227785502212864 -0.8991728319274099 0.943356814844543
C -2.87058818387163 -1.1797137371737227 1.120650480320614
C -1.9113740877371452 -0.15879922390072354 1.0336768689700686
C -0.4810699821582876 -0.4243372385918105 1.237275099115802
C 0.15385567826831692 -1.4910734413551008 0.7281875437930235
C 1.5877618843496855 -1.7124187665995354 1.0209202713145376
O 1.8962608578093152 -2.702810555958929 1.678472823803447
N 2.495998758812607 -0.7924666825716666 0.5156796053789158
C 3.9457899888992025 -0.9235535227533844 0.9537104988844128
C 5.0251107836914475 -1.449382403060739 -0.09515388157856933
C 5.895154818206453 -0.4156696517041989 -0.9451573997927908
C 5.4237636825578885 0.07459001198204832 -2.389765532454058
C 4.077168739758656 0.8946658099358965 -2.488083243933885
C 3.3127226610322413 0.2913374759254031 -1.3772490453184971
C 2.11850224171606 0.2700061257159722 -0.506159455301226
C -2.3233478306792104 1.1613504623382196 0.7974789862596792
C -3.675098338190954 1.4643305082390583 0.6161460287346517
O -4.169825985747409 2.7186641951141013 0.3672850227241833
C -3.2784460798098984 3.814978508711702 0.5152311752381322
C -4.616134804590416 0.4225226852734775 0.6677628680652139
O -5.955246287307517 0.7182258986875385 0.5300354896823736
C -6.335951461751851 0.6032118394027792 -0.8396629572089337
H -4.241620767596389 -3.6394165545851096 0.7484063889867624
H -4.444446036772866 -3.0962322723006244 2.4602900711524622
H -5.821614916156295 -3.7095397492150495 1.5369056178115679
H -2.538458372969205 -2.1895690543438278 1.3388045749709538
H 0.06412540140048667 0.30790943462117576 1.8292646819767615
H -0.33380247526669543 -2.274397324099324 0.16267627140498508
H 3.969825968949063 -1.6228531246303257 1.7979804538714643
H 4.2543006386484015 0.04360661488543649 1.3695472289571853
H 4.594727002440392 -2.2190109879793005 -0.7460552228202154
H 5.767618576313421 -1.9753773267117516 0.5226094364222804
H 6.861670737136476 -0.9096551130119056 -1.1167905683600399
H 6.11870595545717 0.4604318236076802 -0.32333078687123684
H 6.2251125371269875 0.6761730968818633 -2.835164425671035
H 5.32375647781515 -0.8211355436778144 -3.017210713200725
H 4.2649876040823615 1.9617953351593274 -2.329448368226597
H 3.60564626663449 0.7594174356021165 -3.4652994210497923
H 3.9747932856952986 0.6890080392125312 -0.6078994181541759
H 3.3707619059744927 -0.7690174007035101 -1.6508667454904646
H 1.2166426381354898 -0.007519414353723387 -1.056128540116464
H 1.958081780827642 1.210790322701447 0.02954632442091401
H -1.5681801402488371 1.9389700013884053 0.7464653192833716
H -3.855493806727112 4.735401654365867 0.38405686425207003
H -2.503426733549482 3.796153727197166 -0.25779521121123383
H -2.8376793806352048 3.8383793439131835 1.5175025557641528
H -5.783429090761845 1.3096663539011542 -1.4688001170694551
H -7.399822358731647 0.8482202033231206 -0.9125361084807576
H -6.19952877095325 -0.41916606837279685 -1.2086692722063281
*
