!RHF def2-SVP TightSCF PAL16 
*xyz 0 1
C -1.989521062995612 3.4377489362987226 -0.38797741388885726
C -2.2992225816663057 2.621521135981141 0.8564735822069994
C -1.9823707892870401 1.1814430377245482 0.6590053467275672
O -3.0466080450651276 0.37703023974373645 0.38600510902314195
C -2.573145982926022 -0.888476335806734 0.25681803439611633
C -3.354983031137136 -2.010947603968221 -0.008436516103613739
C -2.6875279560216536 -3.2360916241572255 -0.08513500853170713
C -1.3070366589807036 -3.314532194985574 0.10375748892725935
C -0.5474405191573728 -2.1652347801778133 0.36924325612394676
C -1.194619721995712 -0.9133950210443751 0.4352123727758444
C -0.8043121428372019 0.4473358939711565 0.6694151608211772
C 0.5111616544446308 1.0193441405606198 0.9127728464459286
O 0.6812748674317805 1.9770731926364238 1.6635274034449294
C 1.6984682611905342 0.44723383582193366 0.22722053253715824
C 1.6405822363033193 0.01332665583523239 -1.1040167344748728
C 2.783991651090875 -0.5040567421918299 -1.7156688484374067
C 3.9785064231409466 -0.5697256990899038 -1.005643743348411
O 5.067046473853591 -1.081427442126185 -1.6462564059295166
C 4.056162436120156 -0.12078606951904203 0.3092728612296496
C 2.913613830413573 0.395256430630268 0.9250546238300048
H -0.9265521206312636 3.383942247636072 -0.6464638004393919
H -2.5625462307027593 3.077859560020092 -1.249451774073471
H -2.245208342106637 4.4894705988147825 -0.2248444770682885
H -3.3607964355406055 2.7361364425762673 1.1061598587331172
H -1.7361170374942916 3.016761799484351 1.7086546198717745
H -4.4271022911719635 -1.9303384949430427 -0.14052809493848312
H -3.255387331369476 -4.141818832798347 -0.2875142380195368
H -0.8113680439703483 -4.28180377701451 0.04866969048862738
H 0.5236443149272513 -2.257607758307117 0.5246716892450576
H 0.7199926703341354 0.07963983771801632 -1.6788252825644383
H 2.746034533996913 -0.8474533147385885 -2.7462662903059125
H 5.832636759620274 -1.0370247633524605 -1.0497203928444807
H 4.988062752225474 -0.15869847327979822 0.865019713429387
H 2.970687459965985 0.7582949420449006 1.949794830710621
*
