!RHF def2-SVP TightSCF PAL16 
*xyz 0 1
C 5.77905817158324 -1.9348052203591557 -0.9214814836373849
C 5.034141816261035 -0.6892928229358334 -0.4112968609800139
C 6.00767930470448 0.4982672580166836 -0.5047796223709214
N 4.530115790423541 -0.8774501257480452 0.9715049188973859
C 3.8195572226362606 0.30180902245469055 1.5126124420052902
C 2.4654065506106306 0.6065301472332372 0.8400914216716132
N 1.5869862302822693 -0.5586401944502243 0.73655074681979
C 0.20322989396117794 -0.503860585971136 0.5628479530048159
O -0.44967229634509726 -1.554046949508838 0.5279869267075817
C -0.518779905710722 0.879327545800075 0.5604634605661637
C -0.02643128983726925 2.0228820465358606 -0.32877391977540343
C -1.2516727897455264 2.940826780163723 -0.4873423124852369
C -2.395576911473739 2.216670013297132 0.2251096936287058
N -1.960206777276108 0.8323854395330431 0.2569366310091696
C -2.3476670674842386 0.1178397639809323 -0.8959067556186832
O -1.5706153650481227 -0.15504085449096525 -1.8084453899138198
C -3.790057197553355 -0.225786561364349 -1.0247102038055103
C -4.330290453320369 -0.33105347476116004 -2.320367048825432
C -5.677808187513806 -0.6234604751872682 -2.514443101813491
C -6.528255952606613 -0.8273959656345179 -1.4265965454374687
C -5.978412806111551 -0.744128799110549 -0.1408903828384902
N -6.582276830310076 -0.9227254136062115 1.084208159487252
C -5.667167259751521 -0.7783076313213292 2.089471924734668
C -4.451289392805748 -0.5002190864137745 1.5097867949413917
C -4.628574781470617 -0.4553544446730298 0.09336920182026394
C 2.240808166324916 -1.8350380538164002 0.41588950304421696
C 3.6001648992469635 -2.0240742898404704 1.1130215406706203
H 6.56130886450818 -2.2468714417166646 -0.22055106181277048
H 5.100623109810076 -2.7780373442746846 -1.0824388359631931
H 6.2575215700650935 -1.735194709905362 -1.8871074450922944
H 4.207668905648365 -0.49212498383254666 -1.1043456097059772
H 6.812305965934003 0.4137741322318958 0.2341656656523183
H 5.498553157665998 1.4552629726163377 -0.35567036653041134
H 6.470484664679945 0.546310808132897 -1.4970982531167483
H 3.6355037885350185 0.11703508211587409 2.58045934315418
H 4.452313533805298 1.1948835120521917 1.5003135121774966
H 1.9635239089845133 1.3745355201354232 1.4342816333516204
H 2.621679256624136 0.9936418512017932 -0.17240411075672302
H -0.4630028366625652 1.2121701239230294 1.6081399325172305
H 0.3123227122437316 1.658867342328955 -1.3050893820532503
H 0.7974645274351099 2.5875831613016134 0.11378993965778975
H -1.4779686613817764 3.070220227766772 -1.5519912747918811
H -1.0842346358626291 3.9348953640546607 -0.06096901752007821
H -2.490916098664105 2.5649721418463662 1.259768156606158
H -3.3508735242931604 2.3619278517332583 -0.2878887432778409
H -3.6864261601351034 -0.1795209933378803 -3.1849331893558306
H -6.070692379653774 -0.6974302230461846 -3.5259523034807656
H -7.577583369543833 -1.0592487253255145 -1.5802135728755833
H -7.558561310605694 -1.149750826262911 1.2130178200193613
H -5.952484082618304 -0.9003198263213754 3.125590546955234
H -3.5223648104071708 -0.3573102353002339 2.046933965883464
H 2.3616277751140067 -1.8657750932970696 -0.6735610307452844
H 1.5892088714190546 -2.6729645260563033 0.6869464092900043
H 4.063653029815604 -2.9599394012614906 0.7856088532102777
H 3.416951445865714 -2.173385701824034 2.186380727096805
*
