!RHF def2-SVP TightSCF PAL16 
*xyz 0 1
O -1.0486157100005016 -0.633305834959821 1.8404414215096538
C -0.45086736649936154 -0.23791439453423624 0.5780445778936696
C -0.8506145811229693 1.2613960850374013 0.4096876762987566
N -1.8912901594296814 1.736837682639656 1.0706912643755189
C -1.9484942635176388 3.173889847803772 0.6706190852738843
C -0.6061713733241275 3.4968250534664262 0.00986958729364156
N -0.15932043864392195 2.1788647899806275 -0.35621109704582876
C 1.0760064376221905 -0.3803125456367117 0.7075430922448657
C 1.8969444832715308 -0.5650822705398 -0.42248264789924594
C 3.2865414457757702 -0.6567067252812206 -0.29757614165503615
C 3.877730644369971 -0.5558889824792398 0.9580721554799785
Cl 5.587657685681423 -0.6648373338248879 1.1103432507456656
C 3.0923047033261737 -0.3600037616576054 2.0894731486915945
C 1.7030133258929543 -0.26833447573923136 1.9638177995463257
C -1.0608859661629975 -1.1195983909056708 -0.524739656859751
C -1.3726152935363813 -2.4572120382973237 -0.2580355161819562
C -1.8913303280268 -3.257080074927769 -1.2732144926891598
C -2.082611353644699 -2.714320196318076 -2.535850561568331
C -1.737845662570951 -1.3899488214896039 -2.733859361413863
N -1.2249440884708165 -0.5927364169849043 -1.7707120247178396
H -1.7976092121918925 -0.006814524083285254 1.945684001922237
H -2.7786075190391384 3.3107016655902557 -0.03150682067633738
H -2.123269148308457 3.8079176145962044 1.5451744283813442
H -0.7133584779897401 4.15871476957827 -0.8532964377645827
H 0.08608441191400512 3.94462161125677 0.7303858576547483
H 0.8297527623948979 2.022654435848813 -0.5115544993397427
H 1.4617920720912836 -0.6384050124670536 -1.4188388136758514
H 3.897356581335701 -0.8070314942951111 -1.1838994484374155
H 3.5495168803914465 -0.2787642491139402 3.071971917218858
H 1.1061291825946926 -0.11284525898788997 2.8618819352826357
H -1.2131226862270388 -2.8735630097505913 0.7330709548883225
H -2.143617691275982 -4.294896605191378 -1.0754234846518145
H -2.488890466200673 -3.3088960788846777 -3.3459188920358076
H -1.8667488304765514 -0.9179250594487866 -3.703652258090485
*
