!RHF def2-SVP TightSCF PAL16 
*xyz 0 1
C -3.721774038314067 1.7396834805732078 -0.6755686983511551
C -3.259010245091028 0.31625580345451443 -0.36405998585561944
C -4.117707370511399 -0.2608086183102603 0.7486456206719393
O -3.8898782131621137 -0.27980690589846874 1.9467895317341075
O -5.284899187852549 -0.7613128357682595 0.2845618966580522
C -1.765714876693219 0.2583917523443213 -0.06969336547745553
C -1.2001196998805537 0.9747848743623372 1.0116349511811729
C 0.17350585519669706 0.9346714524891401 1.2806868004122598
C 0.9844842492846521 0.17346172786026487 0.4595969149249048
C 0.43074179576173693 -0.5446200864079911 -0.6199432827028396
C -0.9280265114737469 -0.5129620925409105 -0.8941383866348462
C 1.5169666058188376 -1.2972076626467337 -1.3623336046406034
C 2.7551409589943985 -0.9201515858970931 -0.5749863087565141
C 4.063716500622073 -1.3168126096568524 -0.794869563364921
C 5.047590488994639 -0.8363385267779765 0.07156213803790167
C 4.71448366809749 0.02306980882029508 1.132709988149457
C 3.390104052855963 0.41871354832591745 1.3475212859909842
C 2.413515812160833 -0.056844970600895675 0.488883477091718
H -3.6352437040722507 2.397091721377235 0.19684307930752673
H -3.1318842874836808 2.17743878753278 -1.4882918796642344
H -4.774256152715501 1.747371915759496 -0.9803335605328527
H -3.446133426548117 -0.30129661309588085 -1.2533683299411842
H -5.734884520524936 -1.0839329135893432 1.093999336774595
H -1.8379249077080488 1.5649366443432942 1.6682814480846075
H 0.5809965027260096 1.4879693020110996 2.119845903127037
H -1.3251614951804445 -1.0755827419410002 -1.7338888606093414
H 1.593535276383819 -0.9460641669473342 -2.3954813070460736
H 1.3416409509504734 -2.3758845298153073 -1.3145737380189793
H 4.321156669982128 -1.980497974625269 -1.613327979030543
H 6.084600005641993 -1.1298042405160955 -0.07438393804589698
H 5.497359423502499 0.38445124251384627 1.7954502475161176
H 3.1430798202377246 1.081637013267915 2.1695314783498514
*
