!RHF def2-SVP TightSCF PAL16 
*xyz 0 1
C 0.07185265014237366 -1.9461093530005131 -1.5902999034789385
C 0.6787757834039418 -0.5934904131029541 -1.2010924672845855
C 2.0587514710877075 -0.44186445197112423 -1.8796749516370745
N 2.6495145145985908 0.8926102333056432 -1.6744185529161961
C 2.057279715190701 1.8841764284702482 -2.5825361189843847
C 4.101004368846997 0.8449219121682927 -1.8993712190034555
C 0.8196470688712635 -0.4665845921827282 0.3371479226711543
N -0.4909014152976736 -0.2877399241791496 1.021840578653783
C -1.0607482678021307 -1.4424441222727402 1.620543678867498
C -0.2591623147113158 -2.3870336564791055 2.287044932972615
C -0.7995951950636779 -3.547468011322688 2.8534659144809713
C -2.1646540403585486 -3.781444909601254 2.7990724624392618
C -2.988815781833225 -2.836616389390818 2.2062394570811827
C -2.4521878230569025 -1.670029577095571 1.6303024901649377
S -3.616956062304733 -0.5446635436164535 0.9092504687854114
C -2.619371964708166 0.912285187025204 0.665822821623946
C -3.3144231144097014 2.0965247892499446 0.3631504888650665
C -2.631602496917066 3.285015113315563 0.11389136938583863
C -1.2411407315833471 3.2996236985910805 0.17174890419313407
C -0.5244331649581186 4.506590471071028 -0.1003176989851242
N 0.05459212100401935 5.473984797373023 -0.3459375745281641
C -0.5442766710250353 2.121689666581325 0.4733884035395677
C -1.2113634740157608 0.8978453758650782 0.7124533646981664
H 0.0015185978339757808 -2.0413062955232086 -2.6788662415806317
H 0.678982724522155 -2.7784849433256587 -1.217028476807162
H -0.9400761397590045 -2.055837258086967 -1.1913986840344215
H 0.006401515868715551 0.17793979611234034 -1.589617243490727
H 2.722187310189245 -1.209750885338842 -1.4527103090209996
H 1.983609398716921 -0.664295923034626 -2.9538363720714114
H 2.216991543574485 1.6248289606282387 -3.636426537360351
H 0.9766460044920365 1.9907391730139983 -2.4164864654527523
H 2.493276383425137 2.8757887694660087 -2.401842131221302
H 4.550764181727493 1.8335198982717196 -1.740751360730285
H 4.5791695984607985 0.16678117779610485 -1.1883648925113246
H 4.346740063419685 0.5158673869100555 -2.9141995672156225
H 1.483541693443508 0.35858785197031046 0.6156716672945888
H 1.366789358168691 -1.3490725866951112 0.6853008627996302
H 0.8093531679379514 -2.2199062403619076 2.416363286209365
H -0.14787640372414274 -4.263138787763202 3.336365826633667
H -2.5901164715995177 -4.681584637285472 3.2344688878313583
H -4.058585019243048 -3.0171976260571265 2.1906885406337735
H -4.402420571853271 2.094795670910133 0.31767396370471634
H -3.1925001417987344 4.1880090733951985 -0.11983594378341769
H 0.5438180310696242 2.1839386962142626 0.537302211968745
*
