!RHF def2-SVP TightSCF PAL16 
*xyz 0 1
Cl 5.549686700624916 2.546864703045638 1.7458045288470556
C 4.466369045739729 1.3762468049334713 1.1002159014747146
C 4.017329802180828 0.3310807285442097 1.9040199563888118
C 3.1370581367017136 -0.6185742489590539 1.380578041512228
C 2.7013360809889115 -0.5266762096133628 0.05123251439039243
C 1.7379916748582964 -1.545531506260642 -0.5127262935997027
C 0.3098060550949423 -0.999372384334034 -0.6994815552540072
C -0.5638119034529231 -2.0101300726574327 -1.4383890804921393
C -1.942416285819764 -1.4134932219861716 -1.725434459421653
C -2.4766708555021744 -0.487206399086425 -0.6137887538187454
C -2.4611829177747464 0.99892696387047 -1.016343618528647
C -3.08704105294204 1.8633605383351377 0.07734498734170156
C -2.4469972027379105 1.5877477613965922 1.434313438014907
C -2.4036580966994427 0.08800567422998416 1.7456817574623678
N -1.8109821403636432 -0.7203939961238112 0.6720793379296006
C -0.34377866595409273 -0.6200695092714364 0.6466266830670702
C 3.1633004630639574 0.5304266640626497 -0.7461130795300779
C 4.043631684428868 1.4798595965989239 -0.22283393426400766
H 4.3471584239894865 0.24923867553223167 2.9360812102666256
H 2.79217418450803 -1.4295032666005594 2.018905910242351
H 1.719304625795043 -2.4377936189705096 0.12665885230367455
H 2.1353683740033294 -1.8846539536256623 -1.4787450714497836
H 0.3650717619057592 -0.09663448406718983 -1.322946142621036
H -0.0986735835227894 -2.317159540515541 -2.382530477322646
H -0.6757272723798622 -2.9192683620931468 -0.8332292319518558
H -1.9054589611663928 -0.8712781086659137 -2.678488942101186
H -2.6421621865601415 -2.2457004685943547 -1.8754766873274555
H -3.534698302913814 -0.7612998948225196 -0.4898892637235178
H -1.4389339944411421 1.342875689912749 -1.210648175576899
H -3.024155506878652 1.1404697393572814 -1.946763520414789
H -4.162068987122336 1.6519892941189973 0.13484204014816933
H -2.98384505719274 2.923865458789354 -0.17767061782168939
H -3.0113292817078734 2.1076034826907812 2.21712301504404
H -1.4346960680186058 2.0079049877035353 1.4496815017171776
H -3.4278132384086715 -0.26680039918663784 1.9199315147161136
H -1.8706127165064168 -0.08136081532648881 2.689414430580457
H 0.031621557885353514 -1.2786798641324606 1.4397607178659941
H -0.00461978409172282 0.3913429487125571 0.9005042389624107
H 2.839812415459789 0.6196127305997376 -1.7811266892536255
H 4.394313074930308 2.29415788245906 -0.8508957938772949
*
